version 2
run Net1-0-20181127-09:43:54-1419
attr configname Net1
attr datetime 20181127-09:43:54
attr experiment Net1
attr inifile omnetpp.ini
attr iterationvars ""
attr iterationvarsf ""
attr measurement ""
attr network Net
attr processid 1419
attr repetition 0
attr replication #0
attr resultdir results
attr runnumber 0
attr seedset 0
param **.gen.interArrivalTime exponential(0.5s)
param **.sys.serviceTime exponential(0.4s)

vector 0 Net.sys qlen:vector ETV
attr interpolationmode sample-hold
attr title "queue length, vector"
vector 1 Net.sys queueingTime:vector ETV
attr interpolationmode none
attr title "queueing time at dequeue, vector"
attr unit s
vector 2 Net.sys responseTime:vector ETV
attr interpolationmode none
attr title "response time at end of service, vector"
attr unit s
vector 3 Net.sink lifetime:vector ETV
attr interpolationmode none
attr title "lifetime of arrived msg, vector"
attr unit s
vector 4 Net.sink arrivedMsg:vector ETV
attr interpolationmode none
attr title "number of arrived msg, vector"
0	0	0	0
0	8	1.025902631307	1
0	9	1.141778937113	0
0	12	1.487514197042	1
0	14	1.881114767033	2
0	15	1.922397071467	1
0	17	2.142816466135	0
0	40	6.638455446363	1
0	41	6.656432933189	0
0	60	9.554926708938	1
0	62	9.600507222	2
0	63	9.682715229702	1
0	65	9.690885465062	0
0	72	11.016557307873	1
0	73	11.382881447624	0
0	100	16.645507200792	1
0	101	17.092661076962	0
0	104	17.156223137967	1
0	106	17.233587978217	2
0	107	17.441589554979	1
0	110	17.619005307451	2
0	112	18.329687647498	3
0	113	18.599357746174	2
0	115	18.644136210427	1
0	118	18.698601293376	2
0	119	18.858362498518	1
0	121	18.981274639379	0
0	124	19.019448644392	1
0	125	19.063755952191	0
0	140	20.497768906267	1
0	141	20.644992945937	0
0	164	24.166017938586	1
0	165	24.323056524459	0
0	168	24.453284141957	1
0	170	25.051338041686	2
0	172	25.103618654574	3
0	174	25.134676299807	4
0	175	25.253596949137	3
0	177	25.693161936157	2
0	179	26.116695588752	1
0	181	26.560934567027	0
0	188	27.002886495075	1
0	189	27.062144753482	0
0	192	27.071900839289	1
0	194	27.26138182143	2
0	195	27.617761829398	1
0	198	27.729412601316	2
0	199	27.798602653488	1
0	202	27.925968879968	2
0	204	27.945560458175	3
0	205	28.136373770899	2
0	208	28.234222613578	3
0	209	28.538722172966	2
0	211	29.815900829787	1
0	213	29.858954873049	0
0	220	30.578621796054	1
0	222	30.666578568767	2
0	223	30.864678734834	1
0	225	31.288175820872	0
0	232	33.492669010523	1
0	233	33.560654614722	0
0	236	33.806639801019	1
0	237	33.818167015363	0
0	240	33.946778305258	1
0	242	34.033342033331	2
0	243	34.208912644991	1
0	246	34.239592648292	2
0	247	34.255694808908	1
0	249	34.682923687768	0
0	252	34.801176799059	1
0	253	34.835546025118	0
0	256	34.875532933685	1
0	258	34.984973231939	2
0	259	35.438200158427	1
0	261	35.622205741523	0
0	272	37.389806447485	1
0	273	37.728774780386	0
0	280	38.350233294781	1
0	281	39.729151256065	0
0	284	40.224749024573	1
0	286	40.540917322771	2
0	287	40.571279776382	1
0	290	40.897209119438	2
0	292	40.92587258265	3
0	294	41.390111831101	4
0	296	41.690085274422	5
0	297	42.076050690184	4
0	299	42.084126741442	3
0	301	42.100117261065	2
0	303	42.333268616612	1
0	306	42.362207910498	2
0	307	42.466232712997	1
0	309	42.517455419121	0
0	316	44.483581016612	1
0	318	44.546775334825	2
0	319	44.570251485666	1
0	321	44.723331865211	0
0	324	45.130212098099	1
0	326	45.397654285977	2
0	327	45.573026744012	1
0	329	45.599545704605	0
0	340	47.657253707038	1
0	342	47.811461127087	2
0	343	48.040501150056	1
0	346	48.167085095696	2
0	347	48.336804730235	1
0	349	48.376264853602	0
0	368	51.905655121153	1
0	370	51.976320477933	2
0	371	52.094163226509	1
0	374	52.497210805023	2
0	375	52.598136750553	1
0	377	52.734798417363	0
0	384	53.519027260051	1
0	385	53.62073209007	0
0	392	53.970748010429	1
0	393	54.032692681825	0
0	400	54.855971816882	1
0	401	54.916955149128	0
0	408	55.579649718295	1
0	409	55.908892349243	0
0	420	58.024610730281	1
0	421	58.446010007745	0
0	424	58.453807214195	1
0	425	58.64774753038	0
0	428	58.902102649588	1
0	430	59.32671305537	2
0	431	59.553240960724	1
0	433	59.65420895788	0
0	436	59.836042420379	1
0	437	60.54281171727	0
0	448	62.595225202476	1
0	449	63.195697895844	0
0	452	63.196344486099	1
0	453	63.245108554789	0
0	456	63.372854552736	1
0	457	63.827835978215	0
0	464	64.465825028886	1
0	465	64.663428461746	0
0	476	67.033257865075	1
0	477	67.311590821303	0
0	480	67.622949331897	1
0	481	67.666735385478	0
0	500	70.971634375966	1
0	501	71.081717807097	0
0	508	71.447525706843	1
0	510	71.626989314778	2
0	511	71.691886902421	1
0	513	72.123614981883	0
0	516	72.25651107341	1
0	517	72.259480874916	0
0	520	72.427810885759	1
0	521	72.452935149552	0
0	524	72.908998413645	1
0	525	73.006126832167	0
0	528	73.188978948682	1
0	530	73.261765937906	2
0	532	73.316039487153	3
0	534	73.493151553276	4
0	536	73.541612930564	5
0	537	73.849105874147	4
0	540	73.963557166859	5
0	541	74.023917079657	4
0	543	74.34493787396	3
0	546	74.410421706012	4
0	548	74.427523415191	5
0	549	74.686569768217	4
0	552	74.957028107882	5
0	554	75.484952912212	6
0	556	75.678517958287	7
0	558	75.960823208847	8
0	559	76.07558395993	7
0	562	76.085863956336	8
0	564	76.162010768963	9
0	566	76.391097210942	10
0	568	76.442257518368	11
0	570	76.728488294082	12
0	571	76.983037557007	11
0	573	77.873003419897	10
0	575	77.993629785186	9
0	577	78.649988816357	8
0	580	78.797393174337	9
0	581	78.958019560176	8
0	583	79.195648959506	7
0	585	79.237894016958	6
0	587	79.279846751198	5
0	590	79.405902922006	6
0	592	79.623075749978	7
0	594	80.249379512434	8
0	595	80.287559603231	7
0	598	80.566110821295	8
0	600	81.485977213834	9
0	602	81.56691225719	10
0	604	82.742000902065	11
0	605	82.993715811206	10
0	607	83.00902897636	9
0	609	83.079959206418	8
0	611	83.363926377308	7
0	613	83.746312946877	6
0	616	83.754955310617	7
0	617	83.81932838763	6
0	620	83.821047165424	7
0	621	84.423257769874	6
0	624	84.763011608717	7
0	625	85.224052368084	6
0	627	85.436053519339	5
0	630	85.58637115938	6
0	632	85.661766664477	7
0	633	85.772805904032	6
0	635	85.786320618253	5
0	637	85.814990771978	4
0	640	85.923201679521	5
0	642	86.520920962662	6
0	644	86.754557245867	7
0	646	87.056706781791	8
0	648	87.329135345863	9
0	649	87.4349295075	8
0	651	87.455694528373	7
0	654	87.969302447769	8
0	656	88.196758370165	9
0	657	88.260803622855	8
0	659	88.267510729252	7
0	661	89.042141624248	6
0	663	89.147073347914	5
0	665	89.151786640681	4
0	667	89.730904273476	3
0	669	89.909405401684	2
0	672	90.051738666117	3
0	674	90.706387848128	4
0	675	91.063250102525	3
0	677	91.138568092613	2
0	679	91.304413109677	1
0	682	91.399533524139	2
0	683	91.598865549672	1
0	685	91.621213570827	0
0	688	91.735763782556	1
0	689	91.786805139896	0
0	692	91.847333386606	1
0	694	91.856681121816	2
0	695	91.86593694288	1
0	698	91.950440597417	2
0	700	92.261739269406	3
0	702	92.388492121978	4
0	703	92.497302031722	3
0	705	92.666764872265	2
0	708	93.426507652199	3
0	709	93.820582587628	2
0	711	94.195438074717	1
0	713	94.682956796054	0
0	716	94.742617083473	1
0	718	94.758795485796	2
0	719	95.046142406984	1
0	721	95.118125343605	0
0	732	96.440413996317	1
0	733	96.490340540594	0
0	736	96.576248031488	1
0	738	97.936922159444	2
0	740	98.092406061929	3
0	741	98.441993695791	2
0	744	98.5683209157	3
0	745	98.896632293894	2
0	748	98.951860742986	3
0	750	99.397550031441	4
0	751	99.69550108089	3
0	754	100.092388563329	4
0	755	100.219415229435	3
0	757	100.368969827796	2
0	759	100.692161849156	1
0	761	100.895307898231	0
0	784	104.436467838591	1
0	786	104.565474220561	2
0	788	105.136043171991	3
0	790	105.282796997953	4
0	792	105.327374142951	5
0	794	105.357264624409	6
0	796	105.386300805467	7
0	797	105.505137025988	6
0	800	105.67124958812	7
0	801	105.772782515464	6
0	804	105.858084485317	7
0	806	106.454013537144	8
0	807	106.624250553277	7
0	809	106.81401706941	6
0	811	107.198592898038	5
0	813	107.277779992172	4
0	815	107.590570280522	3
0	817	107.600565621847	2
0	820	108.327360844057	3
0	822	108.362169679594	4
0	823	108.371909676599	3
0	825	108.826925078815	2
0	828	109.043135541747	3
0	829	109.087417371582	2
0	832	109.345426150915	3
0	833	109.539559589946	2
0	836	109.729986051463	3
0	837	109.913183722988	2
0	839	110.414865031024	1
0	842	110.864906059355	2
0	844	111.181871069052	3
0	846	111.304116580073	4
0	848	111.608533036942	5
0	850	112.152485253749	6
0	851	112.270726041573	5
0	853	112.392968002299	4
0	855	112.452006415455	3
0	857	112.460353302899	2
0	859	112.564493867518	1
0	861	113.132647249752	0
0	864	113.336944339167	1
0	866	113.52978818619	2
0	867	113.986072564742	1
0	869	114.179527919738	0
0	892	117.722482793889	1
0	893	117.784363798072	0
0	896	118.522342514809	1
0	898	118.625016399177	2
0	899	118.650669270422	1
0	902	119.194545224513	2
0	904	119.499067530867	3
0	905	119.871943138259	2
0	908	120.08062417258	3
0	909	120.136144370159	2
0	912	120.201983419416	3
0	913	120.758009545283	2
0	915	120.862265597034	1
0	917	121.38726879422	0
0	920	121.674223558128	1
0	922	121.820699287371	2
0	924	122.008913963132	3
0	926	122.12887572285	4
0	927	122.236367455797	3
0	929	122.528458521893	2
0	931	122.78373396413	1
0	933	122.794133062207	0
0	944	124.100105188076	1
0	946	124.334443426064	2
0	947	124.348074950014	1
0	949	124.59720667392	0
0	960	125.458547081359	1
0	961	125.675884722607	0
0	968	126.518082976959	1
0	970	126.882344898326	2
0	971	126.904950881816	1
0	973	126.961607695734	0
0	988	128.344179878762	1
0	990	128.445409260611	2
0	992	128.560031423214	3
0	994	128.638269308406	4
0	995	128.661596119615	3
0	998	128.728406458195	4
0	1000	128.795076769831	5
0	1001	128.929412355959	4
0	1004	129.014804465077	5
0	1005	129.441582097551	4
0	1007	129.453952614175	3
0	1009	130.033774524746	2
0	1012	130.425122439285	3
0	1013	130.583511730514	2
0	1015	130.622378801861	1
0	1018	131.115603987118	2
0	1020	131.238203033439	3
0	1022	131.281757325068	4
0	1023	131.558575586124	3
0	1025	131.879932291191	2
0	1028	131.973415558144	3
0	1029	132.40618279451	2
0	1032	132.412523097503	3
0	1033	132.424857891968	2
0	1035	132.518720231671	1
0	1037	132.656928065154	0
0	1044	134.184535266433	1
0	1046	134.237378853485	2
0	1048	134.269935285878	3
0	1050	134.278218333089	4
0	1051	134.499138689589	3
0	1054	134.683788844203	4
0	1056	134.688430356392	5
0	1058	135.242635233499	6
0	1059	135.560162095797	5
0	1062	136.13763003574	6
0	1063	136.175293581588	5
0	1065	136.307657534058	4
0	1067	136.793933723401	3
0	1069	137.147085941384	2
0	1071	137.227262819418	1
0	1073	137.253699623695	0
0	1080	138.548019458298	1
0	1081	138.563041876108	0
0	1100	143.458423614527	1
0	1101	144.170990567862	0
0	1124	148.878562635612	1
0	1125	149.449758640911	0
0	1132	150.304619447955	1
0	1134	150.311282070369	2
0	1135	150.41731047772	1
0	1137	150.587924802535	0
0	1144	152.221277782994	1
0	1145	152.747538307681	0
0	1148	154.225252610431	1
0	1149	154.42828207818	0
0	1152	154.550651281611	1
0	1154	154.894623020842	2
0	1156	154.896651181503	3
0	1157	154.988552356964	2
0	1159	155.114151516189	1
0	1161	155.298068043299	0
0	1164	155.40674472548	1
0	1166	155.480357244137	2
0	1167	155.50945493462	1
0	1170	155.759861079132	2
0	1172	155.936659366763	3
0	1174	156.041926010865	4
0	1175	156.200108286517	3
0	1178	156.29828333218	4
0	1180	156.362573450818	5
0	1181	156.486526413714	4
0	1184	156.489579139993	5
0	1186	156.541063321853	6
0	1188	156.801602732395	7
0	1190	157.792547902949	8
0	1191	158.065579720738	7
0	1194	158.213616054368	8
0	1196	158.424112703392	9
0	1197	159.509156122732	8
0	1200	160.044094186842	9
0	1201	160.131273866874	8
0	1203	160.343258498583	7
0	1205	160.938230400319	6
0	1207	161.116290136082	5
0	1210	161.229287977149	6
0	1211	161.278363289019	5
0	1213	161.312195085724	4
0	1215	161.455912647774	3
0	1218	161.484283394074	4
0	1219	161.665099709236	3
0	1221	161.77080789489	2
0	1224	162.23059947617	3
0	1226	162.301662231866	4
0	1228	162.498413437427	5
0	1230	162.525867123703	6
0	1231	162.813436615818	5
0	1233	163.330695759336	4
0	1235	163.336314395833	3
0	1237	163.340911695916	2
0	1239	163.645881169602	1
0	1242	164.053297013207	2
0	1243	164.234762832799	1
0	1246	164.234918122658	2
0	1247	164.298336104661	1
0	1249	164.331481013828	0
0	1256	165.354048128556	1
0	1257	165.759662361957	0
0	1260	165.91149183951	1
0	1262	166.052253850745	2
0	1264	166.335201121562	3
0	1265	166.424848674227	2
0	1268	166.608029978946	3
0	1269	166.982796310732	2
0	1272	167.015539144394	3
0	1273	167.690644240016	2
0	1275	167.881235673055	1
0	1278	168.00056792719	2
0	1280	168.051334969161	3
0	1282	168.208914983519	4
0	1284	168.356865920143	5
0	1285	168.400613927297	4
0	1288	168.427349862351	5
0	1290	168.455833128584	6
0	1291	168.759145609305	5
0	1294	168.779420480606	6
0	1295	168.902730136656	5
0	1297	169.024318760348	4
0	1300	169.114071916599	5
0	1301	169.269694396185	4
0	1304	169.418604144261	5
0	1305	169.567127672895	4
0	1307	169.800497181309	3
0	1310	169.993474838136	4
0	1311	170.276295681843	3
0	1313	170.409657017193	2
0	1315	170.63692521069	1
0	1317	170.828092405694	0
0	1320	170.950895966957	1
0	1322	171.050823735917	2
0	1324	171.406827768729	3
0	1325	171.529578263703	2
0	1327	171.565713161336	1
0	1329	171.589124320915	0
0	1360	175.272409231427	1
0	1362	175.504104245197	2
0	1364	175.575730755888	3
0	1366	175.685464836335	4
0	1367	176.003550903264	3
0	1369	176.249918616778	2
0	1372	176.440695636947	3
0	1374	176.463514661695	4
0	1376	177.091461403865	5
0	1377	177.286898060291	4
0	1379	177.556878449752	3
0	1381	177.58890999213	2
0	1383	177.842482842727	1
0	1386	177.895670328408	2
0	1387	178.13510097838	1
0	1389	178.281681495113	0
0	1408	181.537082301253	1
0	1410	181.818494902162	2
0	1411	182.131420253955	1
0	1414	182.224944082755	2
0	1416	182.312041662942	3
0	1417	182.416773967075	2
0	1419	182.478888201277	1
0	1422	182.696168333876	2
0	1423	182.936406352925	1
0	1425	183.06647470112	0
0	1428	183.220312886354	1
0	1430	183.289289502319	2
0	1431	183.376411652922	1
0	1434	183.486318288292	2
0	1436	183.565824296692	3
0	1437	183.57588858607	2
0	1439	183.645568072703	1
0	1441	183.728442145603	0
0	1456	187.001518938806	1
0	1457	187.66188408851	0
0	1464	188.377031888886	1
0	1465	188.714762583663	0
0	1468	189.021012876424	1
0	1470	189.275614119857	2
0	1472	189.324673881171	3
0	1473	189.553417093072	2
0	1475	189.775680658335	1
0	1477	190.244186136314	0
0	1480	190.49660870157	1
0	1481	190.50057555442	0
0	1488	191.296506068495	1
0	1489	191.601822061734	0
0	1496	192.508782314815	1
0	1497	192.529206572499	0
0	1500	192.646014075817	1
0	1502	192.733511599926	2
0	1504	192.738418818125	3
0	1505	193.111830657129	2
0	1507	193.259263832973	1
0	1510	193.534196879522	2
0	1512	193.666743430225	3
0	1514	193.973116152657	4
0	1516	194.323128970715	5
0	1517	194.538565823681	4
0	1520	194.770129672055	5
0	1522	195.745118127978	6
0	1523	195.767795912795	5
0	1525	196.012218937309	4
0	1527	196.05323969451	3
0	1530	196.15312740996	4
0	1532	196.639132855491	5
0	1534	197.067850406798	6
0	1535	197.266816723469	5
0	1537	197.954444448184	4
0	1539	198.023059899133	3
0	1542	198.06182013422	4
0	1543	198.981131814889	3
0	1545	199.657225796792	2
0	1547	199.692758749854	1
0	1549	199.762221375137	0
0	1560	201.253319109299	1
0	1562	201.285701955694	2
0	1563	202.191921245204	1
0	1565	202.41260269024	0
0	1572	202.815668374745	1
0	1573	203.18633915452	0
0	1580	203.777968879582	1
0	1581	203.907715013479	0
0	1588	205.594388308717	1
0	1589	205.609557338595	0
0	1596	205.823197356074	1
0	1598	205.925623489647	2
0	1599	206.118551623781	1
0	1601	206.323722420513	0
0	1612	208.236004229516	1
0	1613	208.559338650197	0
0	1636	211.81663955395	1
0	1638	211.83345651441	2
0	1639	212.07189514716	1
0	1641	212.07818679667	0
0	1644	212.20291652438	1
0	1645	212.366044755745	0
0	1648	212.482920711045	1
0	1650	212.518171685225	2
0	1651	212.785781622116	1
0	1653	212.901890988165	0
0	1656	212.911451231171	1
0	1657	212.915092582188	0
0	1660	213.036426639496	1
0	1662	213.18239967536	2
0	1663	213.262237330143	1
0	1665	213.318427616925	0
0	1672	213.925665410283	1
0	1674	213.987022913941	2
0	1675	214.189753135821	1
0	1677	214.575190214337	0
0	1696	220.487679486315	1
0	1698	220.996788275719	2
0	1699	221.111114977344	1
0	1701	221.380692355031	0
0	1712	224.127058993625	1
0	1713	224.243316692434	0
0	1724	225.199799635252	1
0	1725	225.52191207596	0
0	1732	225.88412464681	1
0	1733	226.144874614455	0
0	1736	226.432220927315	1
0	1738	226.796409713831	2
0	1739	227.191130987424	1
0	1741	227.411851836079	0
0	1752	228.33194190608	1
0	1753	228.854416701804	0
0	1756	228.945008012197	1
0	1758	229.212957409867	2
0	1759	229.390527086596	1
0	1762	229.509286118835	2
0	1763	229.569383047635	1
0	1765	230.27501800451	0
0	1776	232.56307136738	1
0	1778	232.695462504049	2
0	1780	232.993548449747	3
0	1781	233.076329628325	2
0	1784	233.207802251837	3
0	1786	234.051411396216	4
0	1787	234.18398742146	3
0	1790	234.20009816017	4
0	1792	234.440537272322	5
0	1793	235.877193739993	4
0	1796	236.176965125273	5
0	1797	236.354989717396	4
0	1799	237.264472584071	3
0	1802	237.35363250931	4
0	1803	237.405179538243	3
0	1806	237.418151760902	4
0	1808	237.556388119174	5
0	1810	237.699842666866	6
0	1812	237.829398794807	7
0	1814	237.885371065379	8
0	1816	238.221562516398	9
0	1817	239.337067637431	8
0	1820	239.729046652491	9
0	1822	239.861954927002	10
0	1824	240.083622125003	11
0	1825	240.225553310711	10
0	1827	240.420160966614	9
0	1829	240.444212314266	8
0	1832	240.66883999001	9
0	1834	241.324821530552	10
0	1836	241.385237228683	11
0	1837	241.438464748005	10
0	1839	241.837384317672	9
0	1841	241.964606135748	8
0	1843	242.021607314008	7
0	1845	242.212213642397	6
0	1847	242.399731919053	5
0	1850	242.452588425953	6
0	1851	242.587283181304	5
0	1854	242.648669070764	6
0	1855	243.139866813243	5
0	1858	243.218566774096	6
0	1859	243.248489129916	5
0	1861	243.323915019616	4
0	1863	243.604333223346	3
0	1865	243.842953190097	2
0	1867	243.983481702714	1
0	1870	244.012245388942	2
0	1871	244.128713238788	1
0	1873	244.859723745915	0
0	1880	245.233593312834	1
0	1882	245.58256208725	2
0	1883	245.634219019455	1
0	1886	245.987808660841	2
0	1888	246.100329907772	3
0	1890	246.602887732058	4
0	1891	246.777189158581	3
0	1894	247.000498832712	4
0	1896	247.367111502051	5
0	1897	247.585022959869	4
0	1899	247.756587694178	3
0	1901	248.312331096957	2
0	1903	248.322302335248	1
0	1906	248.775567367033	2
0	1907	248.803325273132	1
0	1910	248.856138656446	2
0	1912	248.926835212812	3
0	1913	250.179702892166	2
0	1915	250.671990432578	1
0	1917	250.912452291132	0
0	1924	251.556153113037	1
0	1926	251.729369776784	2
0	1927	251.89784062083	1
0	1929	251.963957825758	0
0	1936	252.556800241443	1
0	1938	252.627172819157	2
0	1939	252.762991474001	1
0	1942	252.864842653978	2
0	1944	252.917540718934	3
0	1945	253.13364691412	2
0	1948	253.158828326514	3
0	1950	254.287566721892	4
0	1952	254.325162626474	5
0	1953	254.423773347607	4
0	1955	254.431569064788	3
0	1957	254.748212702629	2
0	1960	256.042974322713	3
0	1962	256.203644474148	4
0	1964	256.284009494432	5
0	1965	256.304576738792	4
0	1967	256.424317939969	3
0	1970	256.732536001485	4
0	1972	256.853908720165	5
0	1974	257.11496437237	6
0	1975	257.332601982928	5
0	1978	257.548610381785	6
0	1979	257.653856691696	5
0	1981	257.78064764365	4
0	1983	257.908184063015	3
0	1985	258.151297968662	2
0	1988	259.408314537235	3
0	1989	259.554923389064	2
0	1991	259.565254606834	1
0	1994	259.665157343867	2
0	1995	259.679482175035	1
0	1997	259.961461903585	0
0	2008	261.179220750342	1
0	2010	261.551409881041	2
0	2012	261.564850190796	3
0	2013	261.846785726589	2
0	2015	262.239797063678	1
0	2018	262.25918882773	2
0	2019	262.402087601225	1
0	2022	262.459086463969	2
0	2023	263.433732853539	1
0	2026	264.166548915185	2
0	2027	264.226857885649	1
0	2029	264.24682412662	0
0	2032	264.258856851638	1
0	2034	264.405132152234	2
0	2036	264.605322917964	3
0	2038	264.900740528166	4
0	2039	265.173834551646	3
0	2041	265.218040902287	2
0	2043	265.505387236371	1
0	2045	265.676763647887	0
0	2060	267.7320905631	1
0	2062	268.351939603408	2
0	2063	268.403198314168	1
0	2065	268.494925182823	0
0	2072	269.677805358429	1
0	2073	269.876340801388	0
0	2088	271.857047642787	1
0	2090	271.872398529293	2
0	2092	272.376405299535	3
0	2093	272.466936614949	2
0	2095	272.609402927574	1
0	2097	272.612569066176	0
0	2116	274.930271130917	1
0	2117	275.162825839544	0
0	2120	275.190660563352	1
0	2122	275.202967385388	2
0	2123	275.229544142793	1
0	2125	275.397335872181	0
0	2128	275.480101622095	1
0	2130	275.966837893918	2
0	2132	275.971111903241	3
0	2134	276.134717093904	4
0	2135	276.34385197772	3
0	2137	276.438014324322	2
0	2139	276.90764237904	1
0	2141	276.956827405795	0
0	2164	280.939199055723	1
0	2165	281.04087956497	0
0	2172	281.918757186589	1
0	2174	282.363021542752	2
0	2175	282.891521978468	1
0	2178	283.260358099751	2
0	2179	284.207781510572	1
0	2181	284.214587760064	0
0	2184	284.491680234454	1
0	2185	284.654775172255	0
0	2196	286.284457561169	1
0	2197	286.34630943872	0
0	2204	287.269992269892	1
0	2206	287.321143160397	2
0	2207	287.495619472082	1
0	2210	287.712085371949	2
0	2211	287.729003541004	1
0	2213	288.022551527813	0
0	2220	290.667296838554	1
0	2222	290.71493907999	2
0	2223	290.732624264462	1
0	2225	290.836007963949	0
0	2228	291.02396526856	1
0	2230	291.288037263921	2
0	2231	291.53738721126	1
0	2234	291.675344132099	2
0	2235	291.927904020447	1
0	2238	292.766701076742	2
0	2239	292.799912199309	1
0	2241	293.185712104013	0
0	2248	293.898902657058	1
0	2249	294.034569444406	0
0	2288	304.088492702032	1
0	2289	304.115155145442	0
0	2292	304.184540490106	1
0	2293	304.267359524867	0
0	2304	306.129103795693	1
0	2306	306.216558925741	2
0	2308	306.650436497211	3
0	2309	306.898040090557	2
0	2311	307.262498413785	1
0	2313	307.499019528013	0
0	2332	309.848370256867	1
0	2334	309.888155334414	2
0	2335	309.951120736639	1
0	2338	310.11231998772	2
0	2339	310.428021633472	1
0	2341	310.541709530883	0
0	2344	311.321845684799	1
0	2346	311.342056473626	2
0	2347	311.384821674244	1
0	2349	311.409548133703	0
0	2352	311.626774530561	1
0	2354	311.65828625269	2
0	2355	311.701150822255	1
0	2358	311.980148655616	2
0	2360	312.08204134672	3
0	2361	312.654378131532	2
0	2364	312.755354990988	3
0	2365	312.882580526762	2
0	2367	312.965661841247	1
0	2369	313.41226927067	0
0	2372	313.897052008198	1
0	2373	313.914667510179	0
0	2388	317.777772154748	1
0	2389	317.916743752724	0
0	2392	318.095823881931	1
0	2394	318.333428601324	2
0	2395	318.335620654921	1
0	2398	318.336030167728	2
0	2399	319.891078544029	1
0	2401	319.967861704809	0
0	2404	320.093019579203	1
0	2406	320.291759119165	2
0	2407	320.403959939393	1
0	2410	320.465223560742	2
0	2412	320.577023089909	3
0	2414	320.609669887732	4
0	2415	320.860169729378	3
0	2417	321.234001895918	2
0	2419	321.381993567818	1
0	2421	321.641757858536	0
0	2428	322.076544051935	1
0	2430	322.212719665112	2
0	2431	322.310531473736	1
0	2433	322.59957236875	0
0	2440	323.548708932202	1
0	2442	323.853590018631	2
0	2444	324.301932936924	3
0	2445	324.372985839256	2
0	2448	324.50778322586	3
0	2449	324.599087951781	2
0	2451	324.958448898356	1
0	2453	325.015738206948	0
0	2460	326.320266717464	1
0	2462	326.530600553664	2
0	2463	326.697391892326	1
0	2465	327.055034247576	0
0	2468	327.058821050755	1
0	2470	327.597016280464	2
0	2471	327.744791001763	1
0	2474	327.854740055468	2
0	2476	327.873884454354	3
0	2477	327.947296588596	2
0	2479	329.617474030287	1
0	2481	329.790953818447	0
0	2488	332.129619745336	1
0	2489	332.600520529385	0
0	2492	332.637099224521	1
0	2493	333.046467271013	0
0	2504	336.447841231938	1
0	2505	336.603139851118	0
0	2520	338.054329429272	1
0	2522	338.086671231845	2
0	2524	338.09763492219	3
0	2526	338.236106034854	4
0	2528	338.30992197647	5
0	2529	338.554158286845	4
0	2532	338.592986752318	5
0	2533	338.674940288241	4
0	2536	338.962055123592	5
0	2537	339.49437355088	4
0	2539	339.573466258056	3
0	2542	339.70364182761	4
0	2544	339.98758567417	5
0	2546	340.0499822203	6
0	2548	340.246590863795	7
0	2550	340.303177529991	8
0	2552	340.740996929036	9
0	2553	340.848619926965	8
0	2556	341.186423829982	9
0	2558	341.87045084067	10
0	2559	341.951105157956	9
0	2561	342.705051003638	8
0	2563	342.726625786205	7
0	2566	343.283712825952	8
0	2568	343.737144379605	9
0	2569	343.825126534295	8
0	2571	344.714639660595	7
0	2573	344.918837725676	6
0	2575	345.526185385035	5
0	2577	345.717616013463	4
0	2580	345.78711152594	5
0	2581	345.812682361906	4
0	2584	345.867083632617	5
0	2585	346.391940811486	4
0	2588	346.444570899401	5
0	2589	346.475766605776	4
0	2592	346.979236428585	5
0	2593	347.391869493736	4
0	2595	347.39545804867	3
0	2597	347.436385440499	2
0	2599	347.474212135099	1
0	2601	347.749696472681	0
0	2604	347.969714076647	1
0	2605	348.13587079256	0
0	2616	348.635575900625	1
0	2618	349.617137545403	2
0	2619	350.221105321931	1
0	2621	350.245232531442	0
0	2632	351.131202551735	1
0	2633	351.331028628168	0
0	2636	351.436579639168	1
0	2637	351.61505676643	0
0	2652	354.702505051292	1
0	2654	354.860718746886	2
0	2655	354.904543210445	1
0	2657	355.111409981273	0
0	2660	355.167202381227	1
0	2661	355.218699218582	0
0	2672	356.190235469035	1
0	2673	356.756170797532	0
0	2676	356.815709799364	1
0	2677	356.960279356635	0
0	2696	358.375678460597	1
0	2697	358.732084393784	0
0	2700	359.239808147081	1
0	2701	359.713406730385	0
0	2704	359.769630618686	1
0	2705	360.159052624972	0
0	2716	360.861035514506	1
0	2718	361.120662376946	2
0	2719	361.519162229197	1
0	2721	361.727091007149	0
0	2728	362.061876669632	1
0	2730	362.077080666514	2
0	2731	362.368881518791	1
0	2734	362.489366528103	2
0	2736	362.744496103282	3
0	2738	362.802641936665	4
0	2739	362.90350888572	3
0	2742	363.181069095278	4
0	2744	363.225612074023	5
0	2745	363.276383581946	4
0	2747	363.714643530046	3
0	2750	363.832989928307	4
0	2752	363.848031326075	5
0	2753	364.117552605402	4
0	2755	364.997879355148	3
0	2757	365.041492100597	2
0	2760	365.446860704778	3
0	2761	365.499923314623	2
0	2763	366.387641523332	1
0	2765	366.399491424251	0
0	2772	366.838962125879	1
0	2774	367.097923848414	2
0	2775	367.563432607817	1
0	2777	367.860522107697	0
0	2784	368.913782947678	1
0	2786	369.019493535167	2
0	2788	369.238920623688	3
0	2790	369.248574676284	4
0	2792	370.191632229704	5
0	2794	370.556693239832	6
0	2795	370.621674138772	5
0	2798	371.292999671104	6
0	2799	371.36170982672	5
0	2801	371.548571117304	4
0	2804	371.930425397379	5
0	2805	371.949980872464	4
0	2808	372.056495235595	5
0	2809	372.096888139463	4
0	2812	372.098475255612	5
0	2814	372.143060796746	6
0	2816	372.303559625692	7
0	2817	372.405140563783	6
0	2819	372.408631722306	5
0	2822	372.428686265894	6
0	2824	372.441316826794	7
0	2825	372.450782178558	6
0	2827	372.513109853002	5
0	2829	372.540485403155	4
0	2832	372.595286224584	5
0	2834	372.629214163608	6
0	2836	372.755151555955	7
0	2837	372.828906364923	6
0	2839	373.013396675966	5
0	2841	373.084148958415	4
0	2843	373.106822510878	3
0	2845	373.434926107922	2
0	2848	373.72508243575	3
0	2849	374.403460766499	2
0	2852	374.467489472774	3
0	2854	374.772269063196	4
0	2855	375.268422743589	3
0	2857	375.335018821157	2
0	2859	375.496519984003	1
0	2861	375.585575524817	0
0	2864	375.910129054733	1
0	2865	376.08478281733	0
0	2868	376.193813114566	1
0	2869	376.307491141906	0
0	2892	379.564833782281	1
0	2893	379.722584539526	0
0	2900	380.944292171926	1
0	2901	381.514529203398	0
0	2920	385.708319191501	1
0	2921	385.725060223956	0
0	2924	386.055957081994	1
0	2925	386.136342351271	0
0	2932	386.519067179691	1
0	2933	386.61243492946	0
0	2952	388.119210741895	1
0	2954	388.181641170814	2
0	2956	388.433354228541	3
0	2957	388.511464922144	2
0	2960	388.520438839094	3
0	2962	388.544407438885	4
0	2963	388.617612905254	3
0	2966	388.98466665804	4
0	2968	389.671526290384	5
0	2970	389.673460201978	6
0	2971	390.030109465451	5
0	2973	390.108797740903	4
0	2976	390.14296950374	5
0	2977	390.454857364473	4
0	2979	390.529437218149	3
0	2981	390.563385782565	2
0	2984	390.617462677128	3
0	2985	391.027192168967	2
0	2988	391.685559640286	3
0	2990	392.321364641446	4
0	2991	392.532664486379	3
0	2994	392.79036869925	4
0	2996	392.989399201744	5
0	2998	393.343667239464	6
0	2999	393.889836772236	5
0	3001	394.032737490343	4
0	3004	394.155162247999	5
0	3006	394.553861485916	6
0	3007	394.756781894928	5
0	3010	394.822172527402	6
0	3012	395.090764395945	7
0	3014	395.458542773417	8
0	3015	395.825191884331	7
0	3017	395.949548709573	6
0	3019	396.4618672388	5
0	3022	396.837823434874	6
0	3024	396.854550814437	7
0	3026	397.087093686311	8
0	3027	397.30139461023	7
0	3029	397.301948335272	6
0	3031	397.341388135352	5
0	3034	397.364609548968	6
0	3035	397.455228208948	5
0	3037	397.608455435782	4
0	3039	397.950921898744	3
0	3041	398.73388925564	2
0	3043	399.146657536807	1
0	3046	399.2855677007	2
0	3047	399.392024763257	1
0	3050	399.512209936107	2
0	3051	399.627242287928	1
0	3053	399.791093151961	0
0	3056	400.063090894765	1
0	3057	400.130399875897	0
0	3072	405.22025647255	1
0	3073	405.886694556847	0
0	3088	408.401418077904	1
0	3090	408.523382912835	2
0	3091	408.570601317228	1
0	3093	408.643233004292	0
0	3104	410.719383869498	1
0	3105	410.809060672434	0
0	3124	413.11919236664	1
0	3126	413.397543698688	2
0	3128	413.576470034852	3
0	3130	414.501762858145	4
0	3131	414.519708552705	3
0	3134	414.542894140881	4
0	3136	415.191812425455	5
0	3137	415.201281194472	4
0	3140	415.245835458891	5
0	3142	415.330864003287	6
0	3144	416.092699143457	7
0	3146	416.27404471156	8
0	3148	416.41591976283	9
0	3150	416.455094663377	10
0	3152	416.473717709529	11
0	3153	416.683677449401	10
0	3156	416.750117376281	11
0	3158	416.807047704934	12
0	3159	416.89264914674	11
0	3161	417.228582547294	10
0	3163	417.454831715703	9
0	3165	417.568072447299	8
0	3167	417.701750613283	7
0	3170	417.857894496974	8
0	3171	418.064715781259	7
0	3173	418.114726000796	6
0	3175	418.706556057328	5
0	3178	419.226906144611	6
0	3180	419.698976770644	7
0	3181	420.196505806965	6
0	3183	420.197578070299	5
0	3185	420.396476658236	4
0	3188	421.047244197604	5
0	3190	421.185897962069	6
0	3191	421.468874694135	5
0	3193	421.584159961298	4
0	3195	421.685841826382	3
0	3198	421.746077503447	4
0	3200	421.758609797224	5
0	3202	421.779017047399	6
0	3204	421.782765219623	7
0	3205	421.950031384095	6
0	3208	422.293181429149	7
0	3210	422.555561651186	8
0	3211	422.999161592854	7
0	3214	423.146264350482	8
0	3215	423.188706224452	7
0	3218	423.756904438935	8
0	3219	423.851664032719	7
0	3222	424.210155077545	8
0	3223	424.345485580631	7
0	3226	424.595423737928	8
0	3228	424.89943955081	9
0	3230	425.116322645563	10
0	3232	425.574709581406	11
0	3233	425.580044436186	10
0	3235	426.004665762705	9
0	3237	426.592479089053	8
0	3240	426.71386445281	9
0	3241	426.779227960038	8
0	3244	426.935000047314	9
0	3245	427.220558081118	8
0	3248	427.420988243853	9
0	3249	427.464731498334	8
0	3251	427.500293188292	7
0	3254	427.591227339621	8
0	3256	427.723974860945	9
0	3258	427.783607295933	10
0	3260	427.826044157839	11
0	3262	427.945448437564	12
0	3264	428.13976522068	13
0	3266	428.240843688806	14
0	3267	428.330154141251	13
0	3269	428.536506830261	12
0	3272	428.713352684112	13
0	3273	428.719816655483	12
0	3275	429.237999321053	11
0	3278	429.397055543613	12
0	3279	429.537385015022	11
0	3281	429.80490448869	10
0	3283	429.86742154569	9
0	3285	429.867639993674	8
0	3287	429.941229571126	7
0	3290	429.963749673761	8
0	3292	429.997052242381	9
0	3294	430.029883834969	10
0	3295	430.162863229065	9
0	3298	430.18337252624	10
0	3299	430.25626871148	9
0	3302	430.397501540646	10
0	3304	430.443695300024	11
0	3306	430.564984779462	12
0	3308	431.025924408602	13
0	3309	431.333891785473	12
0	3311	431.835123023073	11
0	3314	432.003078794451	12
0	3316	432.088604703971	13
0	3318	432.175273464585	14
0	3320	432.384653140713	15
0	3321	432.484727200591	14
0	3324	432.849989919025	15
0	3326	432.9114478131	16
0	3327	433.004406933564	15
0	3330	433.455755899627	16
0	3331	433.525023776944	15
0	3333	433.93087447865	14
0	3335	434.254390529162	13
0	3338	434.419408148253	14
0	3340	434.432455130734	15
0	3342	434.758826941005	16
0	3344	434.788341467433	17
0	3345	434.922785159239	16
0	3347	434.956164366264	15
0	3349	434.976407649991	14
0	3351	435.267616803189	13
0	3353	435.406243606841	12
0	3355	435.969015824951	11
0	3358	436.020088782021	12
0	3360	436.036491559383	13
0	3362	436.307227806215	14
0	3363	436.47119609355	13
0	3365	436.547152796535	12
0	3368	436.612263201853	13
0	3370	436.668965562949	14
0	3372	437.221188965442	15
0	3373	437.24387840512	14
0	3375	437.559669043055	13
0	3377	437.815999471654	12
0	3380	438.071250930074	13
0	3381	438.171481082699	12
0	3383	439.078677239033	11
0	3386	439.140989691565	12
0	3388	439.568914302287	13
0	3389	439.607313281505	12
0	3391	439.826460759095	11
0	3394	439.832498697135	12
0	3395	440.013510390002	11
0	3397	440.303479764525	10
0	3400	440.439428978667	11
0	3401	440.480253040074	10
0	3404	441.5388116235	11
0	3405	441.923715046846	10
0	3408	442.207142142876	11
0	3410	442.209725285928	12
0	3412	442.294913965271	13
0	3413	442.746951517907	12
0	3416	442.887257040598	13
0	3417	443.207915925658	12
0	3419	443.221781806683	11
0	3421	443.717560670195	10
0	3424	444.147052120076	11
0	3426	444.244455168336	12
0	3427	444.583411540466	11
0	3429	444.847697577833	10
0	3431	445.133142039135	9
0	3434	445.176148160234	10
0	3435	445.193618209713	9
0	3438	445.24445259008	10
0	3439	445.371505591695	9
0	3442	445.730186566864	10
0	3444	445.866968997989	11
0	3445	446.478097658917	10
0	3447	446.876741370579	9
0	3449	447.009722139213	8
0	3452	447.150930357871	9
0	3454	447.358408649233	10
0	3456	447.414575989559	11
0	3457	447.483057948556	10
0	3459	447.742286092429	9
0	3462	447.872987508207	10
0	3464	448.313441316845	11
0	3466	448.39340911878	12
0	3468	448.539673155242	13
0	3470	448.688146684633	14
0	3472	448.800350286398	15
0	3473	449.06315967341	14
0	3475	449.469444742633	13
0	3477	449.740269427575	12
0	3480	449.834331443977	13
0	3481	450.312357166878	12
0	3483	450.490316554472	11
0	3485	450.572397681803	10
0	3488	450.980456256899	11
0	3489	451.066029692499	10
0	3492	451.360814557816	11
0	3493	451.42011643036	10
0	3496	451.558277203862	11
0	3498	451.748572653518	12
0	3500	451.862695965117	13
0	3501	452.083553785122	12
0	3504	452.158783367106	13
0	3506	452.442549659022	14
0	3508	452.597450726302	15
0	3509	452.720186630353	14
0	3512	452.818525812266	15
0	3513	452.861866075987	14
0	3516	454.050905880477	15
0	3517	454.391693938563	14
0	3519	454.410536273558	13
0	3522	454.70881299637	14
0	3524	454.814021447987	15
0	3525	454.930651930371	14
0	3528	454.985205654418	15
0	3529	455.224969261176	14
0	3531	455.413607549356	13
0	3534	455.416236468066	14
0	3536	455.554838187325	15
0	3537	456.017769476831	14
0	3540	456.348652831111	15
0	3541	456.479274982178	14
0	3544	456.559854555812	15
0	3545	456.921816208162	14
0	3548	457.296593444139	15
0	3550	457.962295619362	16
0	3551	458.248643159246	15
0	3553	458.309673618502	14
0	3556	459.016629360305	15
0	3558	460.021383668655	16
0	3560	460.246788573969	17
0	3562	460.537879100537	18
0	3564	460.561023853496	19
0	3565	460.696167898403	18
0	3567	460.85356085719	17
0	3570	460.894189291508	18
0	3571	461.091511359547	17
0	3574	461.237687109461	18
0	3576	461.33217636782	19
0	3577	461.427100672719	18
0	3579	461.462666417657	17
0	3581	461.738471586426	16
0	3584	461.817509241743	17
0	3585	461.979595949628	16
0	3588	462.825417973912	17
0	3589	463.058829166808	16
0	3592	463.319492300495	17
0	3594	463.576096491112	18
0	3595	463.634985808811	17
0	3598	463.76270635529	18
0	3599	463.850601612226	17
0	3601	464.516663503177	16
0	3604	464.860089879683	17
0	3605	464.994634756526	16
0	3608	465.074092454913	17
0	3610	465.192875226378	18
0	3611	465.243593966265	17
0	3613	465.268081739114	16
0	3616	465.346558862754	17
0	3617	465.610850979708	16
0	3619	465.697566990007	15
0	3622	466.39040399432	16
0	3623	466.700655924111	15
0	3625	466.751843902058	14
0	3628	467.066315037353	15
0	3630	467.269903627622	16
0	3632	467.808232952048	17
0	3633	467.857234478293	16
0	3636	467.904644446448	17
0	3638	467.966236132592	18
0	3640	468.056091662214	19
0	3641	468.373619560528	18
0	3643	468.925305700823	17
0	3645	468.948729240152	16
0	3648	469.206718345229	17
0	3649	469.223879148745	16
0	3651	469.260454607962	15
0	3653	469.301024521318	14
0	3655	469.496420235874	13
0	3657	470.292906492072	12
0	3659	470.815823046072	11
0	3661	471.150174073088	10
0	3664	471.175021410136	11
0	3666	471.404389080804	12
0	3667	471.495473490794	11
0	3670	471.587306500373	12
0	3671	471.663101812222	11
0	3673	472.22957920442	10
0	3675	472.570935478908	9
0	3677	472.722020961123	8
0	3680	473.830955705989	9
0	3681	473.881820422594	8
0	3683	474.210007449762	7
0	3686	474.366433229176	8
0	3687	474.501373039926	7
0	3689	474.7667817139	6
0	3692	474.782254705529	7
0	3693	474.787792150043	6
0	3695	474.831753260118	5
0	3697	475.155306735565	4
0	3699	475.536528106036	3
0	3702	475.939392154835	4
0	3703	476.237993712969	3
0	3706	476.597093401114	4
0	3708	476.73697180231	5
0	3709	476.755222488119	4
0	3712	476.756631927274	5
0	3714	477.498277026426	6
0	3715	478.08464733868	5
0	3718	478.174200454875	6
0	3719	478.182430095719	5
0	3722	478.310112214382	6
0	3724	478.827115125753	7
0	3726	478.849051464729	8
0	3728	479.056624661973	9
0	3729	479.116265384545	8
0	3732	479.259161276564	9
0	3734	479.311693193015	10
0	3735	479.636283788216	9
0	3738	479.750940938264	10
0	3739	479.894475696626	9
0	3742	480.457575845907	10
0	3743	480.580444938266	9
0	3746	480.602393694871	10
0	3747	480.722080458305	9
0	3749	480.787528223709	8
0	3752	481.948693628704	9
0	3754	482.149131735527	10
0	3756	482.239013779613	11
0	3757	482.772341321667	10
0	3759	483.060060030577	9
0	3762	483.079695977237	10
0	3763	483.120567808594	9
0	3765	483.223745900309	8
0	3767	483.394644946831	7
0	3769	483.423179749397	6
0	3771	483.534344968118	5
0	3773	484.023620864338	4
0	3776	484.075324222906	5
0	3778	484.326780431246	6
0	3779	484.548935406477	5
0	3781	484.697848119732	4
0	3783	484.978116536595	3
0	3785	485.485345306137	2
0	3787	485.684660833022	1
0	3789	485.84843655809	0
0	3804	487.84182657212	1
0	3805	487.872720459729	0
0	3812	489.751763621588	1
0	3814	489.923601314084	2
0	3816	490.527136894535	3
0	3817	490.551880297129	2
0	3820	490.626237554811	3
0	3821	490.784363218374	2
0	3824	490.838183724973	3
0	3825	490.877285364033	2
0	3828	491.165205506232	3
0	3829	491.314693114891	2
0	3832	491.53446177474	3
0	3833	491.87548389369	2
0	3835	492.246098657905	1
0	3838	492.495188742731	2
0	3840	492.837398213512	3
0	3842	492.961695475648	4
0	3844	493.02450065032	5
0	3845	493.12700603608	4
0	3848	493.512115171537	5
0	3850	493.571223269055	6
0	3851	493.741351982392	5
0	3854	493.90945820899	6
0	3855	493.987064093839	5
0	3857	494.142704117201	4
0	3859	494.200630570994	3
0	3861	494.352842455032	2
0	3864	494.87192612782	3
0	3866	495.201380401239	4
0	3868	495.539231559119	5
0	3869	495.694828206777	4
0	3871	495.724868675123	3
0	3873	495.753545562344	2
0	3875	495.885010385412	1
0	3878	496.193579138986	2
0	3879	496.730369699125	1
0	3881	497.26129888812	0
0	3884	497.357942082576	1
0	3885	497.423895915146	0
0	3888	497.455037571966	1
0	3889	498.827561758803	0
0	3892	498.854798956198	1
0	3893	499.062443907322	0
0	3896	499.207724953753	1
0	3897	499.245387071903	0
0	3904	503.59809595616	1
0	3905	503.740017243942	0
0	3912	504.152276056012	1
0	3914	504.333603562533	2
0	3915	504.686920904912	1
0	3917	505.044600900998	0
0	3920	505.115029339736	1
0	3921	505.334037608236	0
0	3956	511.929560468184	1
0	3957	512.022904349493	0
0	3964	512.673192544891	1
0	3965	512.680101886903	0
0	3972	512.998510246264	1
0	3974	513.351994328291	2
0	3975	513.625145199778	1
0	3978	513.946578365544	2
0	3980	514.077528160835	3
0	3982	514.128919176845	4
0	3983	514.159162433508	3
0	3986	514.191772621228	4
0	3988	514.212553680627	5
0	3989	514.448540833534	4
0	3991	514.709886220419	3
0	3993	514.81372965229	2
0	3995	515.168390506133	1
0	3998	515.60619799697	2
0	3999	515.620606518184	1
0	4001	515.980065700063	0
0	4004	516.747373279463	1
0	4006	516.752430617275	2
0	4008	516.980476500138	3
0	4009	516.99171827605	2
0	4012	517.303442476924	3
0	4014	517.920264115726	4
0	4015	518.060248144217	3
0	4017	518.078236811392	2
0	4020	518.314850198605	3
0	4021	518.419649479531	2
0	4023	518.498364865979	1
0	4025	518.792020392512	0
0	4032	519.388562589349	1
0	4033	519.485076713866	0
0	4036	519.515630545779	1
0	4037	519.538164325805	0
0	4048	521.545043405962	1
0	4050	521.714562319792	2
0	4051	522.298949174582	1
0	4054	522.506905173209	2
0	4056	522.523350808111	3
0	4058	522.533937124039	4
0	4059	522.542989295464	3
0	4061	522.755139161413	2
0	4063	522.774307928251	1
0	4065	523.043221372917	0
0	4068	523.133524972068	1
0	4070	523.273168923074	2
0	4072	524.03967212596	3
0	4074	524.483814177039	4
0	4076	524.615394625342	5
0	4078	525.315064406552	6
0	4079	525.534194240108	5
0	4081	525.641782451445	4
0	4084	525.651844801784	5
0	4086	526.13629500323	6
0	4087	526.186971784121	5
0	4089	526.595212777983	4
0	4091	526.699165558815	3
0	4094	527.051981493282	4
0	4096	527.123887170678	5
0	4098	527.877048501809	6
0	4099	527.885948089648	5
0	4101	528.640407620406	4
0	4103	529.084796958951	3
0	4106	529.214428198739	4
0	4107	529.354464250737	3
0	4109	529.436462240359	2
0	4111	529.542248065126	1
0	4114	530.259315142578	2
0	4116	530.328197664349	3
0	4118	530.397458585404	4
0	4120	530.613100251479	5
0	4122	530.931916111106	6
0	4124	531.077560352803	7
0	4126	531.112821535099	8
0	4128	531.150589765554	9
0	4129	531.732775605688	8
0	4131	532.146444101195	7
0	4134	532.590461656221	8
0	4136	532.735111320306	9
0	4138	533.370504379995	10
0	4139	533.486550143477	9
0	4141	533.658858908708	8
0	4144	533.669626987672	9
0	4145	533.794898741966	8
0	4148	533.816398189345	9
0	4150	533.970546964977	10
0	4152	534.269655652361	11
0	4154	534.337733939047	12
0	4155	534.811196116835	11
0	4157	535.109654115636	10
0	4159	535.127659907967	9
0	4161	535.188835202665	8
0	4164	535.397268915441	9
0	4165	535.49581277188	8
0	4168	535.587701992621	9
0	4169	535.736938333631	8
0	4171	535.894818253319	7
0	4174	536.080397114896	8
0	4176	536.258869933038	9
0	4178	536.271156005925	10
0	4179	536.414928945101	9
0	4182	536.426316313278	10
0	4184	536.537594131768	11
0	4185	536.639857915088	10
0	4187	536.911265734481	9
0	4190	537.065549581425	10
0	4192	537.277214784452	11
0	4194	537.599702703296	12
0	4195	537.678864704351	11
0	4198	537.800389840903	12
0	4200	537.834640181794	13
0	4202	537.989013065765	14
0	4204	537.995994099892	15
0	4206	538.002794487886	16
0	4207	539.071037272497	15
0	4210	539.216057267445	16
0	4211	539.335505146147	15
0	4213	539.453852029022	14
0	4216	539.483068937807	15
0	4217	539.905948364593	14
0	4219	540.146831682213	13
0	4221	540.2528205365	12
0	4223	540.342396920678	11
0	4226	540.350903162559	12
0	4227	540.491187324048	11
0	4229	541.117791246122	10
0	4231	541.170136420433	9
0	4233	541.672443965153	8
0	4236	541.676798475265	9
0	4237	541.935073822146	8
0	4239	541.973558419814	7
0	4242	542.085079140801	8
0	4244	542.215291675545	9
0	4245	542.461799968558	8
0	4248	542.486481522406	9
0	4250	542.489143621607	10
0	4252	542.862852959368	11
0	4254	542.86856300264	12
0	4255	542.92440027502	11
0	4257	543.210738853947	10
0	4260	543.267877417858	11
0	4262	543.3113600067	12
0	4264	543.342711792826	13
0	4266	543.368924802252	14
0	4267	543.924824500981	13
0	4270	544.544952744788	14
0	4272	545.071620551559	15
0	4273	545.271735825859	14
0	4275	545.68140573746	13
0	4277	545.747368439836	12
0	4279	545.759637990109	11
0	4281	545.759903764599	10
0	4284	546.051127611797	11
0	4285	546.723404860878	10
0	4287	546.734757240389	9
0	4289	546.865229559398	8
0	4291	546.947276349603	7
0	4293	547.029543997588	6
0	4296	547.471928089719	7
0	4297	547.934548319104	6
0	4299	547.98875145016	5
0	4301	548.034872579704	4
0	4304	548.059957953327	5
0	4306	548.213662028407	6
0	4307	548.237863845306	5
0	4310	548.927322710743	6
0	4312	549.341173621622	7
0	4313	549.714933333791	6
0	4316	549.851253652301	7
0	4318	550.218944773489	8
0	4319	550.239375519256	7
0	4322	550.326065234392	8
0	4323	550.442320581686	7
0	4326	550.59162399395	8
0	4328	550.936588279848	9
0	4330	551.012556709152	10
0	4331	551.03809632973	9
0	4334	551.152164728294	10
0	4335	552.406711028196	9
0	4337	553.196377704324	8
0	4339	553.641197258867	7
0	4341	554.025772101227	6
0	4344	554.239263264772	7
0	4346	554.261190200608	8
0	4348	554.510776077298	9
0	4349	554.886678314257	8
0	4352	555.114190587943	9
0	4353	555.921931780805	8
0	4355	556.037873155041	7
0	4357	556.335293349966	6
0	4360	556.336751008793	7
0	4361	556.404028291881	6
0	4364	556.555402936809	7
0	4366	556.619477229758	8
0	4367	557.022350775446	7
0	4369	557.584788182272	6
0	4371	557.6104055895	5
0	4374	558.425744501363	6
0	4375	558.475610869122	5
0	4378	558.478426247551	6
0	4379	558.517866979344	5
0	4382	558.669714184585	6
0	4384	559.042936420844	7
0	4386	559.051540267417	8
0	4387	559.087024683935	7
0	4390	559.660696655499	8
0	4391	560.452189989008	7
0	4393	560.834055056292	6
0	4395	560.884198601355	5
0	4397	561.205775628453	4
0	4400	561.217397995734	5
0	4401	561.381993940517	4
0	4404	561.392850831587	5
0	4405	561.505847230825	4
0	4407	562.164741632038	3
0	4409	562.28838870812	2
0	4411	562.359828325346	1
0	4414	562.717446793513	2
0	4415	563.064273742797	1
0	4418	563.764580517286	2
0	4420	564.507550359037	3
0	4421	564.747064390913	2
0	4424	565.272394076364	3
0	4425	565.608105518769	2
0	4428	565.638327596121	3
0	4430	565.672506773595	4
0	4432	566.098512512302	5
0	4434	566.418234009001	6
0	4436	566.724859269762	7
0	4437	566.999783197939	6
0	4440	567.01321374731	7
0	4442	567.126536106527	8
0	4443	567.265242268032	7
0	4445	567.485615057855	6
0	4447	567.579237876371	5
0	4449	567.756353845189	4
0	4451	567.944579635672	3
0	4453	568.016079257048	2
0	4456	568.255882118616	3
0	4457	568.426000555017	2
0	4460	568.547019784192	3
0	4462	568.699467781352	4
0	4464	568.728479496933	5
0	4465	568.929558957078	4
0	4468	569.097617061393	5
0	4470	569.115513590601	6
0	4472	569.316837072948	7
0	4473	570.459049186546	6
0	4476	570.500299809525	7
0	4477	570.551349921337	6
0	4479	570.69813987249	5
0	4481	571.019844071618	4
0	4484	571.347700521798	5
0	4486	572.302325766771	6
0	4487	572.693704195806	5
0	4490	572.854505886637	6
0	4492	572.995208753819	7
0	4494	573.053769173348	8
0	4496	573.16602642939	9
0	4498	573.664277899614	10
0	4500	573.703202002431	11
0	4501	574.005952267443	10
0	4503	574.186480901674	9
0	4505	575.951942943349	8
0	4507	576.64629085568	7
0	4510	576.809009190625	8
0	4512	576.970094374036	9
0	4513	577.016144023588	8
0	4516	577.038589269813	9
0	4517	577.200001234806	8
0	4520	577.4761550626	9
0	4522	577.477188445522	10
0	4523	577.773249467571	9
0	4525	577.861962927304	8
0	4528	578.072464843904	9
0	4529	578.074669300016	8
0	4531	578.146472778411	7
0	4533	578.306926918235	6
0	4535	579.203796781078	5
0	4537	579.610672498176	4
0	4540	579.635649165928	5
0	4542	579.800498425895	6
0	4544	579.948871818791	7
0	4545	579.952997026278	6
0	4547	580.061085866087	5
0	4549	580.582689663289	4
0	4551	580.820652130355	3
0	4553	580.98063494652	2
0	4555	581.187068836797	1
0	4558	581.425417891252	2
0	4560	581.461101696561	3
0	4562	581.518339061257	4
0	4563	581.814697175712	3
0	4565	582.01393921639	2
0	4567	582.63243835382	1
0	4569	582.732448068047	0
0	4572	582.951942097611	1
0	4573	583.006954931055	0
0	4580	583.581557133327	1
0	4581	583.607617161653	0
0	4596	584.564698292355	1
0	4597	584.84412244454	0
0	4600	585.177484793324	1
0	4602	585.189926834143	2
0	4604	585.415797937234	3
0	4605	585.431356409673	2
0	4607	585.500809159189	1
0	4609	585.605651946602	0
0	4612	585.91834104865	1
0	4613	586.019607718639	0
0	4616	586.074812975502	1
0	4617	586.181492464755	0
0	4620	586.880171334886	1
0	4621	587.258260054486	0
0	4628	588.627374454806	1
0	4630	589.504043806857	2
0	4631	590.198239172182	1
0	4633	590.242161030995	0
0	4644	591.79358857796	1
0	4646	591.87837689799	2
0	4648	591.941687286837	3
0	4649	592.012240188805	2
0	4652	592.219252309432	3
0	4653	592.374364325519	2
0	4655	592.549655401631	1
0	4657	592.593393207046	0
0	4664	593.34448008048	1
0	4665	593.36995414132	0
0	4668	593.790993525265	1
0	4669	593.95064155072	0
0	4672	594.076928907767	1
0	4673	594.689724198846	0
0	4684	596.341056754563	1
0	4685	596.435487395521	0
0	4692	596.919929278108	1
0	4693	596.970724518556	0
0	4696	597.363479082651	1
0	4697	597.508797416649	0
0	4704	600.024071684418	1
0	4706	600.27084990374	2
0	4707	600.502282942409	1
0	4709	600.624766769316	0
0	4712	600.731141815289	1
0	4713	600.986509086722	0
0	4720	602.25079180015	1
0	4721	602.695497043714	0
0	4732	604.731837159957	1
0	4734	605.006840842005	2
0	4735	605.124723023021	1
0	4737	605.213476230247	0
0	4740	605.762562720929	1
0	4741	605.970682163631	0
0	4744	605.991580743105	1
0	4746	606.605153371893	2
0	4747	606.726135346205	1
0	4750	606.747408787771	2
0	4751	607.145532233209	1
0	4754	607.624788132625	2
0	4755	608.197835499671	1
0	4758	608.259454799183	2
0	4760	608.454766799829	3
0	4761	609.004379867224	2
0	4764	609.301586380947	3
0	4765	609.453561709968	2
0	4767	609.900912888674	1
0	4769	610.030284758841	0
0	4772	610.513685257978	1
0	4773	610.678799399916	0
0	4780	610.98325733412	1
0	4781	611.161077748985	0
0	4784	611.394259904465	1
0	4785	611.608060229662	0
0	4788	611.945898823537	1
0	4789	611.952604396265	0
0	4792	612.114837111993	1
0	4794	612.124664290582	2
0	4796	612.202131448426	3
0	4798	612.456896667094	4
0	4799	612.553516159415	3
0	4802	612.636169959397	4
0	4803	612.701089181317	3
0	4806	613.341192104766	4
0	4808	613.551167460402	5
0	4809	613.841290065248	4
0	4811	614.211472527752	3
0	4814	614.646980284928	4
0	4815	614.998806303822	3
0	4818	615.132608016913	4
0	4820	615.309956229656	5
0	4821	615.422178227183	4
0	4824	615.520973923233	5
0	4825	615.669326874667	4
0	4828	615.91895080773	5
0	4829	616.131144972785	4
0	4831	616.725430079845	3
0	4834	616.763259119437	4
0	4835	616.766957147729	3
0	4838	617.284211566341	4
0	4839	617.412887865522	3
0	4841	617.429708547011	2
0	4843	617.442542075223	1
0	4846	617.527879301772	2
0	4847	618.120586216875	1
0	4850	618.684236974475	2
0	4852	618.688946677755	3
0	4854	618.715123771304	4
0	4856	618.769133544313	5
0	4857	618.779782471301	4
0	4860	619.262437449114	5
0	4861	619.391431365007	4
0	4863	619.416561377806	3
0	4865	619.491006230283	2
0	4868	619.611470156663	3
0	4870	619.691776960639	4
0	4871	620.358915006663	3
0	4874	620.833712432398	4
0	4876	620.86251715779	5
0	4877	620.952493993474	4
0	4880	621.281826509826	5
0	4881	622.158507795588	4
0	4883	622.447507263056	3
0	4886	623.31907213385	4
0	4888	623.319418028625	5
0	4889	624.060005165963	4
0	4891	624.356406613491	3
0	4893	624.406911145706	2
0	4895	624.598509762536	1
0	4897	625.712414010053	0
0	4900	625.777102776675	1
0	4902	625.917336595406	2
0	4904	626.068286769309	3
0	4906	626.374727257096	4
0	4908	626.670516238957	5
0	4910	627.378700402505	6
0	4911	627.402008857413	5
0	4914	627.428443323566	6
0	4915	627.493080851622	5
0	4917	627.827252450606	4
0	4919	627.842555212695	3
0	4921	627.924783136216	2
0	4924	628.474801584229	3
0	4925	628.514817955125	2
0	4928	628.530119962231	3
0	4930	628.592085129053	4
0	4931	628.645292217119	3
0	4934	628.666992926052	4
0	4935	628.822334166777	3
0	4937	628.8242004472	2
0	4939	629.21599647969	1
0	4942	629.271386370413	2
0	4944	629.289501501846	3
0	4945	629.437248968138	2
0	4947	629.633768694246	1
0	4950	629.835116960141	2
0	4951	629.839225988616	1
0	4953	629.875105992646	0
0	4960	630.273091004673	1
0	4962	630.436036770706	2
0	4963	630.640284115287	1
0	4965	630.714484848738	0
0	4968	630.746527001398	1
0	4969	631.13024032436	0
0	4976	632.506072885415	1
0	4977	632.513822213842	0
0	4988	634.186869494816	1
0	4990	634.545672139725	2
0	4992	634.685465467237	3
0	4993	635.338803229687	2
0	4995	635.443507913555	1
0	4997	635.624432989825	0
0	5004	637.244413704838	1
0	5006	637.649584772096	2
0	5007	637.655055611253	1
0	5009	637.856485511043	0
0	5012	637.972719582038	1
0	5014	639.528469985878	2
0	5015	639.661599637406	1
0	5017	640.026435438702	0
0	5024	640.28432210436	1
0	5026	640.554568800372	2
0	5027	640.855984118824	1
0	5029	641.464521464841	0
0	5032	641.751554201192	1
0	5033	641.996850319911	0
0	5048	644.443666448514	1
0	5050	644.751643979418	2
0	5052	645.098238975209	3
0	5054	645.524439102891	4
0	5055	645.7121723591	3
0	5057	646.95302458877	2
0	5059	647.382909544666	1
0	5062	648.357806881167	2
0	5063	648.933693786055	1
0	5066	649.690506182356	2
0	5067	649.724710561644	1
0	5069	649.902661480967	0
0	5080	651.808295346704	1
0	5082	652.089351977656	2
0	5083	652.232528230163	1
0	5085	652.247087066117	0
0	5112	656.877509599218	1
0	5113	656.931240006726	0
0	5132	658.975743472904	1
0	5134	659.029712510318	2
0	5136	659.445488824214	3
0	5138	659.618269692571	4
0	5140	659.685499121514	5
0	5141	659.874382242375	4
0	5143	659.966153250989	3
0	5145	660.026364179372	2
0	5147	661.131227505412	1
0	5149	661.29177469061	0
0	5156	661.748680547127	1
0	5157	661.89503075127	0
0	5160	661.949867152768	1
0	5162	662.142938365487	2
0	5163	662.148977305938	1
0	5166	662.393508759624	2
0	5168	662.599966197438	3
0	5169	663.322509985061	2
0	5171	663.505095430671	1
0	5174	663.532628574712	2
0	5175	663.69809710449	1
0	5177	663.708129492315	0
0	5188	665.968514993977	1
0	5190	666.051167266926	2
0	5191	666.697745508017	1
0	5194	666.918588307654	2
0	5196	668.188119362734	3
0	5198	668.240929324234	4
0	5200	668.378605837929	5
0	5201	668.913521247557	4
0	5203	669.3800160269	3
0	5206	669.387739688785	4
0	5207	669.519422871518	3
0	5209	669.748045012905	2
0	5211	669.802412812809	1
0	5213	670.437202703719	0
0	5232	673.760538738435	1
0	5233	674.127897205349	0
0	5248	676.221970600744	1
0	5250	676.474245564768	2
0	5251	676.606585637118	1
0	5253	676.679883623017	0
0	5288	684.953608430217	1
0	5290	684.960785449201	2
0	5291	684.96624259253	1
0	5293	685.133725881914	0
0	5312	690.555282778478	1
0	5314	690.578080249763	2
0	5316	690.722722002268	3
0	5317	690.843375353336	2
0	5319	691.000031193795	1
0	5321	691.145595445461	0
0	5336	694.630478161121	1
0	5337	694.662639642845	0
0	5356	696.676345402578	1
0	5358	696.834596165331	2
0	5360	697.184630988194	3
0	5362	697.333873910949	4
0	5364	697.443184648758	5
0	5365	697.592958261811	4
0	5367	697.60393890088	3
0	5370	697.823170491034	4
0	5372	697.867137163687	5
0	5373	698.089802810446	4
0	5375	698.307595519496	3
0	5377	698.781377825899	2
0	5379	699.072573808636	1
0	5382	699.35785370305	2
0	5383	699.680399607041	1
0	5385	699.754414236955	0
0	5388	699.87777629384	1
0	5389	700.009277353524	0
0	5392	700.112028770245	1
0	5394	700.379059026566	2
0	5396	700.379417635514	3
0	5397	700.438688272872	2
0	5399	700.444644775077	1
0	5401	700.584974171104	0
0	5404	700.959204612767	1
0	5406	701.139899004089	2
0	5407	701.234254361685	1
0	5409	701.410208137215	0
0	5412	701.615472260904	1
0	5413	701.97401364076	0
0	5424	702.916653672861	1
0	5426	702.957392176043	2
0	5427	703.130848269399	1
0	5429	703.316480399234	0
0	5440	704.914413656063	1
0	5441	705.002078296654	0
0	5448	706.258693578878	1
0	5450	706.427937609327	2
0	5451	706.865295119171	1
0	5454	707.051446426179	2
0	5455	707.183151223853	1
0	5458	707.42260933834	2
0	5459	707.496688755303	1
0	5461	708.034953230304	0
0	5464	708.508905615214	1
0	5465	708.831027982549	0
0	5472	710.243538510665	1
0	5473	710.719077615919	0
0	5476	711.031737578499	1
0	5477	711.327447962467	0
0	5480	711.571099101356	1
0	5481	711.664762634768	0
0	5484	712.005132645511	1
0	5485	712.183857812012	0
0	5496	714.21087545308	1
0	5498	714.290607899333	2
0	5499	714.736484053972	1
0	5502	715.296654812924	2
0	5503	715.301190014697	1
0	5505	715.336194481331	0
0	5516	717.095773233763	1
0	5518	717.256079562448	2
0	5520	717.349205188394	3
0	5522	717.954268510466	4
0	5523	717.967930699866	3
0	5526	717.974274621588	4
0	5527	717.980193884818	3
0	5530	718.255461830064	4
0	5532	718.537621904608	5
0	5533	718.806628496312	4
0	5536	718.831546294488	5
0	5537	719.109655948164	4
0	5540	719.180518923457	5
0	5541	719.364096125802	4
0	5544	719.568835450734	5
0	5545	719.843019245804	4
0	5548	720.087421392143	5
0	5549	720.155218601549	4
0	5552	720.298871950054	5
0	5554	720.35216786015	6
0	5555	720.467870492605	5
0	5557	720.62118305475	4
0	5560	720.902294555141	5
0	5561	720.916767470565	4
0	5563	720.942425387569	3
0	5566	720.994341392483	4
0	5567	721.267317673472	3
0	5569	721.420424717341	2
0	5571	721.555427809401	1
0	5574	721.828030913336	2
0	5575	722.824102365527	1
0	5578	722.987644493385	2
0	5580	723.501582143266	3
0	5582	723.985539814189	4
0	5583	724.173546287911	3
0	5585	724.557954079892	2
0	5588	724.707223501859	3
0	5589	724.707837852047	2
0	5591	724.775725544002	1
0	5593	725.648876096323	0
0	5604	727.732231218954	1
0	5605	727.769103539949	0
0	5608	727.959720969698	1
0	5610	728.072085102368	2
0	5612	728.083377446705	3
0	5614	728.417261555534	4
0	5615	728.526185663484	3
0	5618	729.207943578709	4
0	5619	730.38327292414	3
0	5622	730.498379848099	4
0	5624	730.851243047436	5
0	5626	730.914222790073	6
0	5628	730.992069837779	7
0	5630	731.004826337137	8
0	5632	731.257111022822	9
0	5633	731.356127034116	8
0	5635	731.420652480982	7
0	5637	731.728810778767	6
0	5639	731.781193721524	5
0	5641	731.87054609488	4
0	5644	732.401637903505	5
0	5646	732.96153534062	6
0	5648	733.142322565455	7
0	5649	733.199275013978	6
0	5651	733.323344357217	5
0	5653	733.375426831476	4
0	5656	733.659048387824	5
0	5658	733.809330893877	6
0	5659	733.965200698001	5
0	5661	733.989984035589	4
0	5664	734.185058133202	5
0	5666	734.302830998168	6
0	5667	734.815381638676	5
0	5669	734.872147956146	4
0	5671	734.905624459726	3
0	5673	734.99151424402	2
0	5675	735.053277793507	1
0	5677	735.515944490083	0
0	5684	738.743597576159	1
0	5686	738.79730923919	2
0	5687	738.813162646479	1
0	5690	738.82029444872	2
0	5691	738.870791004332	1
0	5693	739.023026522886	0
0	5700	739.982091278853	1
0	5702	740.12931961706	2
0	5704	740.843459607434	3
0	5705	741.111045824693	2
0	5707	741.318335203796	1
0	5710	741.537681242925	2
0	5712	741.571348981076	3
0	5714	741.953110114531	4
0	5716	742.574838679399	5
0	5717	743.808762483576	4
0	5720	744.017853725849	5
0	5721	744.146196322688	4
0	5723	744.211856498594	3
0	5725	744.256981761831	2
0	5728	744.270449584647	3
0	5730	744.533227902665	4
0	5731	744.651818434583	3
0	5733	744.792281806021	2
0	5736	745.068679303152	3
0	5738	745.408702943962	4
0	5740	745.714795558079	5
0	5741	745.95550922111	4
0	5743	746.242885679096	3
0	5746	746.249871647898	4
0	5747	746.490138828116	3
0	5750	747.445789211478	4
0	5751	747.584475033091	3
0	5754	747.587237530463	4
0	5756	747.740056367826	5
0	5758	748.345349666536	6
0	5759	748.448787117269	5
0	5761	748.717877886605	4
0	5763	748.904887861089	3
0	5765	748.961369201647	2
0	5767	749.552088193384	1
0	5770	749.675771521293	2
0	5771	749.754432493345	1
0	5774	749.883410344692	2
0	5776	750.006442473157	3
0	5778	750.174098794614	4
0	5779	750.241933811777	3
0	5781	750.28585443442	2
0	5784	750.358775648522	3
0	5785	750.568725065186	2
0	5787	750.669024013014	1
0	5789	751.162866663471	0
0	5792	751.551207470145	1
0	5793	751.686603704327	0
0	5824	756.980461795794	1
0	5825	757.266510289878	0
0	5828	757.354352218348	1
0	5830	757.74038874034	2
0	5832	757.894302645167	3
0	5833	758.459793876235	2
0	5835	758.50254923499	1
0	5837	758.648195229215	0
0	5852	762.801080097546	1
0	5853	763.381838679473	0
0	5856	763.651454620603	1
0	5857	764.004226589134	0
0	5868	765.143373051218	1
0	5870	765.252731600313	2
0	5872	766.022582671876	3
0	5873	766.358795467703	2
0	5876	766.579234052028	3
0	5877	766.911673413838	2
0	5879	767.285887414276	1
0	5881	767.29244194131	0
0	5900	769.647856312579	1
0	5901	769.653468415477	0
0	5912	770.406489255584	1
0	5913	770.592262194912	0
0	5924	771.947646467202	1
0	5926	772.119870620214	2
0	5927	772.26021685233	1
0	5929	772.275731760851	0
0	5932	772.425251457797	1
0	5933	772.782239930637	0
0	5952	777.397246011716	1
0	5954	777.631779236454	2
0	5956	777.774134040602	3
0	5958	777.992471877878	4
0	5959	778.10650337014	3
0	5961	778.296601711287	2
0	5964	778.554525964701	3
0	5966	779.090796713098	4
0	5967	780.045288205181	3
0	5969	780.22346141387	2
0	5971	780.339905684466	1
0	5974	780.392597008395	2
0	5976	781.02813273894	3
0	5977	781.262412216411	2
0	5979	781.457867296898	1
0	5981	781.470226900387	0
0	5992	783.240688828023	1
0	5994	783.26233261861	2
0	5996	783.343297191935	3
0	5998	783.472514831956	4
0	6000	784.073728356649	5
0	6002	784.369740157741	6
0	6004	784.581692853308	7
0	6005	784.627345479497	6
0	6007	784.710124252799	5
0	6009	784.810445292384	4
0	6011	785.008724454811	3
0	6013	785.281168622281	2
0	6016	785.488665851094	3
0	6017	786.702346081323	2
0	6019	786.751107999777	1
0	6022	786.815580006313	2
0	6024	786.83240685198	3
0	6025	787.191211104871	2
0	6028	787.63234626903	3
0	6029	787.827294914946	2
0	6032	788.032705743695	3
0	6033	788.51320473935	2
0	6035	788.779257945767	1
0	6037	789.134594100963	0
0	6040	790.000516951583	1
0	6042	790.023806381123	2
0	6043	790.43157513154	1
0	6046	790.517856763512	2
0	6047	790.519825221621	1
0	6049	790.727350618091	0
0	6052	790.964874137777	1
0	6054	791.424618527649	2
0	6056	791.425176930908	3
0	6057	791.443119684792	2
0	6059	791.53073042258	1
0	6061	791.743881300966	0
0	6076	793.754101894271	1
0	6077	794.348940084819	0
0	6084	796.216614818413	1
0	6085	796.281801763732	0
0	6108	800.375269480588	1
0	6110	800.783812890943	2
0	6111	800.8862708699	1
0	6113	801.10998216637	0
0	6116	801.523142332891	1
0	6117	801.669468655202	0
0	6136	805.966438357503	1
0	6138	806.304058965061	2
0	6139	806.530558570596	1
0	6141	807.036273520451	0
0	6144	807.088241832126	1
0	6145	807.729686537849	0
0	6148	807.758236512196	1
0	6149	807.922414555941	0
0	6152	808.94310199265	1
0	6153	809.014417539291	0
0	6172	810.958176988336	1
0	6173	811.037597296695	0
0	6176	811.066007048439	1
0	6177	811.082778041282	0
0	6184	811.571059680359	1
0	6185	811.661589113108	0
0	6196	813.218986304872	1
0	6197	813.448607299684	0
0	6220	819.461176990404	1
0	6221	819.499458360079	0
0	6228	820.41028352966	1
0	6230	820.625883653839	2
0	6232	821.12795750408	3
0	6233	821.918240070523	2
0	6235	821.975985985563	1
0	6238	822.389186916386	2
0	6240	822.503499785177	3
0	6242	823.015110178223	4
0	6244	823.253855140782	5
0	6245	823.271275480768	4
0	6247	823.545805955896	3
0	6249	823.563158768664	2
0	6251	823.571297509943	1
0	6254	823.837271238012	2
0	6255	823.860311707553	1
0	6258	824.165875792069	2
0	6259	824.176940590523	1
0	6261	824.343207832444	0
0	6264	824.487944670648	1
0	6266	824.523476195571	2
0	6267	824.572205283905	1
0	6269	824.676184110621	0
0	6272	824.708036369677	1
0	6274	824.929607348097	2
0	6276	825.477922332766	3
0	6278	825.763512775454	4
0	6279	825.934263227742	3
0	6281	826.291807623202	2
0	6284	826.538221626761	3
0	6285	826.581741403588	2
0	6287	826.764116568813	1
0	6289	826.916990968025	0
0	6300	827.388396051033	1
0	6302	827.409262910237	2
0	6303	827.695164815317	1
0	6305	827.814431119868	0
0	6316	829.540667569366	1
0	6317	829.658368610972	0
0	6352	836.595672245085	1
0	6353	836.721686487331	0
0	6360	839.926292689063	1
0	6361	840.077678314727	0
0	6376	841.803780873835	1
0	6378	841.855772654756	2
0	6379	841.995595117763	1
0	6382	842.342951801045	2
0	6384	842.500033750706	3
0	6385	842.547888673258	2
0	6387	842.668963707873	1
0	6390	842.801370389109	2
0	6392	842.825117480381	3
0	6393	843.169274555432	2
0	6395	843.861263067703	1
0	6397	843.924666209632	0
0	6412	845.765093401498	1
0	6413	845.861655051489	0
0	6416	847.197991842246	1
0	6417	847.439658138608	0
0	6424	849.645151801836	1
0	6425	849.886668504192	0
0	6428	850.17992862812	1
0	6430	850.236230480547	2
0	6431	850.244451760272	1
0	6434	850.265574368267	2
0	6435	850.665426548189	1
0	6438	850.904092895846	2
0	6439	851.367936894312	1
0	6442	851.653088237743	2
0	6443	851.829373683722	1
0	6445	852.045429556878	0
0	6452	852.556268700181	1
0	6453	852.556738576752	0
0	6480	855.828381004043	1
0	6482	855.935804190811	2
0	6484	856.064821413923	3
0	6485	856.246244028425	2
0	6488	856.277610280032	3
0	6490	856.63075859263	4
0	6491	856.997216324747	3
0	6494	857.090940173495	4
0	6495	857.394335197163	3
0	6498	857.790651567056	4
0	6500	857.918619800093	5
0	6501	857.921254838449	4
0	6503	858.477988309191	3
0	6506	859.0227645011	4
0	6508	859.926870955884	5
0	6509	860.285161082224	4
0	6512	860.470494240418	5
0	6513	860.5975306749	4
0	6515	860.60864392837	3
0	6517	861.210745087563	2
0	6519	861.37091992916	1
0	6522	861.403836576058	2
0	6523	861.517917251434	1
0	6526	861.851030771675	2
0	6527	862.351915290583	1
0	6529	862.369397058281	0
0	6536	863.242278785905	1
0	6537	863.259975078113	0
0	6540	863.402197310729	1
0	6541	863.622497087183	0
0	6544	863.71223631834	1
0	6545	863.933986969564	0
0	6552	864.274458043572	1
0	6554	864.833371095971	2
0	6556	864.877397867061	3
0	6557	865.448658767745	2
0	6560	865.686677221327	3
0	6562	865.789152818676	4
0	6564	865.80696088204	5
0	6566	866.075139664143	6
0	6568	866.462257984013	7
0	6569	866.655868377689	6
0	6572	866.829226933359	7
0	6574	867.129790882667	8
0	6576	867.439510591543	9
0	6577	867.82069009763	8
0	6579	867.867414904241	7
0	6582	868.243804553599	8
0	6583	869.160223566468	7
0	6585	869.801910518142	6
0	6588	869.975682610472	7
0	6590	870.016283740675	8
0	6591	870.042202843713	7
0	6593	870.695972990306	6
0	6596	870.861637469088	7
0	6598	870.896096227468	8
0	6599	871.153724213032	7
0	6602	871.156356495758	8
0	6603	871.261383700927	7
0	6605	871.327851296631	6
0	6607	871.756025817196	5
0	6609	871.844044708445	4
0	6611	872.410698043852	3
0	6613	872.711275710645	2
0	6615	872.720038571357	1
0	6617	873.165557194882	0
0	6620	873.176519418119	1
0	6622	873.494261738335	2
0	6623	873.541352578943	1
0	6625	874.825870850857	0
0	6636	875.803756989385	1
0	6637	875.842982299929	0
0	6640	876.824568571546	1
0	6641	877.00548452165	0
0	6648	877.542019794935	1
0	6649	877.687914838379	0
0	6652	877.995418316859	1
0	6654	878.275434808512	2
0	6656	878.325413175726	3
0	6657	878.677012843602	2
0	6660	878.730471565991	3
0	6661	878.942403161497	2
0	6664	879.000198968093	3
0	6666	879.256003360311	4
0	6667	879.549490509292	3
0	6670	879.778771726887	4
0	6672	879.84640222486	5
0	6674	879.895126622566	6
0	6675	880.024922553867	5
0	6677	880.097791375543	4
0	6679	880.48280180112	3
0	6682	880.878277959401	4
0	6683	881.244858540197	3
0	6685	881.834606974251	2
0	6687	882.202929918115	1
0	6689	882.335139987594	0
0	6692	882.382789011625	1
0	6694	882.619609271468	2
0	6695	883.009203749622	1
0	6697	884.050823123387	0
0	6712	886.259658683743	1
0	6714	886.282289169752	2
0	6716	886.307649931218	3
0	6717	886.475091573819	2
0	6720	886.589813984084	3
0	6721	886.669734456589	2
0	6723	886.889198176205	1
0	6726	887.148141744257	2
0	6728	887.217561091441	3
0	6729	887.5944214919	2
0	6731	887.611294973534	1
0	6733	887.624625000195	0
0	6740	888.315126580106	1
0	6741	888.351688747013	0
0	6748	888.626777396751	1
0	6749	888.84641790596	0
0	6752	889.438990670391	1
0	6753	889.876883035652	0
0	6776	893.856401293849	1
0	6778	893.945475456075	2
0	6779	893.978732588894	1
0	6781	894.455312147816	0
0	6796	895.417903009107	1
0	6797	895.418430477994	0
0	6816	898.923268057616	1
0	6817	899.021485623822	0
0	6824	899.471191461777	1
0	6826	899.740078641101	2
0	6827	899.820241842352	1
0	6829	899.925440203091	0
0	6836	900.851991531319	1
0	6837	901.781821976014	0
0	6840	902.306135914169	1
0	6842	902.480334054182	2
0	6843	902.483137450242	1
0	6845	902.657860391359	0
0	6848	902.671237945491	1
0	6850	902.673096281162	2
0	6852	902.931955569806	3
0	6853	903.022573278565	2
0	6855	903.072285133641	1
0	6857	903.139577196024	0
0	6864	903.978539819468	1
0	6866	904.125902907708	2
0	6868	904.496136411111	3
0	6869	904.606655777762	2
0	6871	904.981663196081	1
0	6873	905.074159399226	0
0	6892	908.569928538943	1
0	6894	908.692418007474	2
0	6896	908.697119327979	3
0	6898	909.376261087596	4
0	6899	909.759134105377	3
0	6901	909.846396884722	2
0	6904	910.518411818965	3
0	6906	910.687078804915	4
0	6908	910.824707819895	5
0	6909	910.887047175015	4
0	6911	910.905748446588	3
0	6914	910.91591355055	4
0	6915	910.981581999528	3
0	6917	911.244349266984	2
0	6919	911.318387935261	1
0	6921	911.364859042111	0
0	6928	912.054768252998	1
0	6929	912.102154775279	0
0	6936	912.345276030914	1
0	6937	912.555266946199	0
0	6940	912.591059797344	1
0	6942	912.640485356703	2
0	6943	912.704415856524	1
0	6945	912.97657026575	0
0	6960	914.781508987365	1
0	6962	915.241191408577	2
0	6964	915.759868175831	3
0	6965	916.238221899777	2
0	6967	916.241402319436	1
0	6969	916.350111397292	0
0	6988	919.361254667832	1
0	6990	919.365805312152	2
0	6991	919.738465290071	1
0	6994	919.76681289471	2
0	6995	919.82360602244	1
0	6997	919.949751964823	0
0	7008	920.774906245886	1
0	7009	920.819709512417	0
0	7020	921.684235404744	1
0	7022	921.87172021524	2
0	7023	922.011898562396	1
0	7026	922.095936201918	2
0	7028	922.424158090385	3
0	7029	922.874684180613	2
0	7031	923.120482528069	1
0	7033	923.213514062549	0
0	7044	924.951923622215	1
0	7045	924.977116541661	0
0	7060	926.725410284065	1
0	7061	927.070368858364	0
0	7072	930.073232910479	1
0	7073	930.260851418885	0
0	7080	930.81525704863	1
0	7081	931.085952253226	0
0	7084	931.301532049417	1
0	7085	931.512981970152	0
0	7088	931.677706314	1
0	7089	931.717035881147	0
0	7092	931.99456498529	1
0	7093	932.207151984458	0
0	7100	932.805108867032	1
0	7101	932.849294427503	0
0	7104	932.898980208099	1
0	7105	933.053952797844	0
0	7108	933.181658646365	1
0	7109	933.274404460648	0
0	7112	933.375040127235	1
0	7114	933.413547889316	2
0	7115	933.595845973756	1
0	7118	933.655300189938	2
0	7119	934.340213889943	1
0	7122	934.622481891919	2
0	7123	934.930881528198	1
0	7126	935.123595267503	2
0	7127	935.244917658568	1
0	7130	936.349770844036	2
0	7132	936.577840886546	3
0	7134	936.61552607286	4
0	7135	936.796440790158	3
0	7137	937.378560192983	2
0	7139	937.875520171659	1
0	7141	937.999420571728	0
0	7148	938.934352644321	1
0	7149	939.049622033924	0
0	7152	939.058121601805	1
0	7154	939.836159982123	2
0	7156	939.887687212853	3
0	7157	939.895044991621	2
0	7160	939.965569929372	3
0	7161	940.500374047478	2
0	7164	940.88191284085	3
0	7165	940.922700648267	2
0	7168	941.423643141587	3
0	7170	941.454061562044	4
0	7171	941.658219767519	3
0	7173	942.324584417157	2
0	7176	942.510901408021	3
0	7177	942.57468892276	2
0	7180	943.005003887831	3
0	7181	943.88707442209	2
0	7184	944.181850018119	3
0	7185	944.559823932267	2
0	7188	944.872448310158	3
0	7190	945.284213997308	4
0	7192	945.290694442446	5
0	7193	945.373113686607	4
0	7196	946.196309876356	5
0	7198	946.359209737687	6
0	7200	946.506159493728	7
0	7201	946.551999996212	6
0	7204	946.902035954866	7
0	7205	946.949957009988	6
0	7208	947.07583467505	7
0	7209	947.19392020019	6
0	7211	947.572405319166	5
0	7213	947.674980140739	4
0	7215	948.022951624345	3
0	7217	948.029296983619	2
0	7219	948.619415337183	1
0	7221	948.777139264898	0
0	7224	948.800048225589	1
0	7225	949.097921169696	0
0	7228	949.149137530378	1
0	7230	949.163523995875	2
0	7231	949.42625637526	1
0	7234	949.611491294776	2
0	7236	949.734705944368	3
0	7237	949.753965815976	2
0	7239	950.21412528608	1
0	7241	950.702074284357	0
0	7244	950.771566012519	1
0	7246	951.259279039244	2
0	7247	952.333299558605	1
0	7250	952.561923445725	2
0	7252	952.695839562791	3
0	7253	953.582378260553	2
0	7256	954.28421890002	3
0	7257	955.102588234884	2
0	7260	955.153612122861	3
0	7262	955.621529669513	4
0	7263	955.811719783655	3
0	7265	956.079308148129	2
0	7268	957.321903480921	3
0	7270	957.328606266431	4
0	7271	957.550136291029	3
0	7274	957.64203469825	4
0	7275	957.922964019585	3
0	7278	958.134688260669	4
0	7280	958.289508768963	5
0	7282	959.141660751535	6
0	7284	959.258661595429	7
0	7286	959.466877590318	8
0	7287	959.730123733995	7
0	7290	959.764349835062	8
0	7291	959.796095773619	7
0	7294	959.908605329135	8
0	7295	960.409195077312	7
0	7298	960.865939712353	8
0	7300	960.896060993831	9
0	7301	960.95412907315	8
0	7303	961.090648507195	7
0	7305	961.921920996396	6
0	7307	962.000157516001	5
0	7309	962.324625980163	4
0	7311	962.36613864529	3
0	7313	962.408854034222	2
0	7316	962.60239439838	3
0	7317	962.694029605575	2
0	7320	962.932735026806	3
0	7322	963.120951639186	4
0	7324	963.407047476501	5
0	7325	963.465884875271	4
0	7327	963.589203631603	3
0	7329	963.73284712081	2
0	7332	963.766186118696	3
0	7333	964.588206854539	2
0	7336	964.755795972523	3
0	7337	965.604171831991	2
0	7340	965.685794824105	3
0	7342	965.875302689547	4
0	7343	965.886096721407	3
0	7345	966.252194583893	2
0	7347	966.277582974266	1
0	7350	966.411957984328	2
0	7351	966.502557478013	1
0	7354	966.620781458807	2
0	7356	966.867626254913	3
0	7358	966.971360346627	4
0	7360	967.323437126563	5
0	7361	967.46172371971	4
0	7364	967.921651784222	5
0	7365	968.216983549269	4
0	7367	968.88036417321	3
0	7369	968.957446541288	2
0	7371	968.961376795794	1
0	7373	969.051618642424	0
0	7388	971.365214313246	1
0	7389	971.401570700705	0
0	7396	971.955178561162	1
0	7398	972.278896794115	2
0	7399	972.312290687202	1
0	7401	972.359836481979	0
0	7408	973.579966570714	1
0	7409	973.696600668091	0
0	7412	973.747548907446	1
0	7414	974.041605086605	2
0	7416	974.558198114841	3
0	7417	975.529372253323	2
0	7419	975.568529415608	1
0	7421	975.648528640582	0
0	7424	975.888731548097	1
0	7426	976.145302573317	2
0	7427	976.242276816233	1
0	7430	976.499812483312	2
0	7432	976.559212527593	3
0	7433	976.62470256844	2
0	7435	976.914271287942	1
0	7437	976.971426185198	0
0	7448	979.315813243841	1
0	7449	979.449731034265	0
0	7484	984.520013744574	1
0	7486	984.988479372007	2
0	7487	985.224333406858	1
0	7490	985.300005206231	2
0	7491	985.396085329476	1
0	7493	985.482450337349	0
0	7508	987.192555652818	1
0	7510	987.271374706457	2
0	7511	987.533173407361	1
0	7513	987.899874164159	0
0	7520	988.743362931856	1
0	7521	989.334091715572	0
0	7524	989.651367625105	1
0	7526	989.849329695426	2
0	7527	989.962381132005	1
0	7529	990.006679666805	0
0	7536	991.41018350255	1
0	7537	992.040229307211	0
0	7548	992.932204840966	1
0	7549	993.059826850274	0
0	7580	998.191226227921	1
0	7581	998.399057264011	0
0	7588	999.233167905064	1
0	7589	999.268231960039	0
0	7596	1000.056141019816	1
0	7598	1000.690625912462	2
0	7599	1000.728183811181	1
0	7602	1001.317969759672	2
0	7603	1001.426930719661	1
0	7605	1001.976414371955	0
0	7620	1003.331832157202	1
0	7622	1003.941618589414	2
0	7624	1004.124276679824	3
0	7625	1004.35608424319	2
0	7627	1004.459294143521	1
0	7629	1004.843219041655	0
0	7640	1007.103669982165	1
0	7642	1007.139061706233	2
0	7643	1007.160957353068	1
0	7646	1007.331593472375	2
0	7647	1007.438879323266	1
0	7649	1007.573900806181	0
0	7652	1008.08949895529	1
0	7653	1008.168591544472	0
0	7656	1008.25735766284	1
0	7658	1008.477329695155	2
0	7660	1008.625733514319	3
0	7662	1008.81470671515	4
0	7664	1009.254500383595	5
0	7665	1009.271385723078	4
0	7668	1009.686598611746	5
0	7670	1010.261975005922	6
0	7671	1010.331915912631	5
0	7674	1010.395813846074	6
0	7675	1010.457115531147	5
0	7678	1010.468229633928	6
0	7679	1010.512711235933	5
0	7681	1010.536954791093	4
0	7684	1010.707610309938	5
0	7686	1011.136329844088	6
0	7687	1011.501957423144	5
0	7689	1011.584339357113	4
0	7691	1011.599618565447	3
0	7693	1011.603334973307	2
0	7696	1011.828551523569	3
0	7697	1012.19691911662	2
0	7699	1012.437388032467	1
0	7701	1012.745520652539	0
0	7704	1013.142384319146	1
0	7705	1013.184550266286	0
0	7708	1013.190886624306	1
0	7709	1013.680366999588	0
0	7720	1016.457307747993	1
0	7722	1016.479017101475	2
0	7723	1016.56314708306	1
0	7725	1016.613166504965	0
0	7732	1017.291178951189	1
0	7733	1017.617424018814	0
0	7740	1018.45497512719	1
0	7741	1018.45855538927	0
0	7748	1019.331127395266	1
0	7750	1019.636808418695	2
0	7751	1019.711178289045	1
0	7753	1020.124754586304	0
0	7760	1021.32878901701	1
0	7762	1021.80573697068	2
0	7763	1022.200282835996	1
0	7766	1022.326062616213	2
0	7768	1022.670122388434	3
0	7770	1022.757453818673	4
0	7772	1022.988626525249	5
0	7773	1023.356141299078	4
0	7775	1023.423008622005	3
0	7778	1023.642574050684	4
0	7780	1023.706858075362	5
0	7781	1023.798723783071	4
0	7784	1023.809213071239	5
0	7786	1023.812324441111	6
0	7787	1023.854858633007	5
0	7789	1023.85858975906	4
0	7792	1023.941795883508	5
0	7794	1024.321538112575	6
0	7796	1024.462133732183	7
0	7797	1024.624524114601	6
0	7799	1024.800848020634	5
0	7801	1025.214313511722	4
0	7804	1025.892554502273	5
0	7805	1026.289335567499	4
0	7808	1026.518960720848	5
0	7809	1026.551133522837	4
0	7812	1026.859437126229	5
0	7813	1026.909815255256	4
0	7816	1027.295441224611	5
0	7818	1027.362988974917	6
0	7820	1027.440063678447	7
0	7821	1027.615630921054	6
0	7823	1027.920821185633	5
0	7826	1028.487120480338	6
0	7827	1028.492990968497	5
0	7830	1028.539137746325	6
0	7832	1028.930435940783	7
0	7834	1029.107149583237	8
0	7836	1029.558317188239	9
0	7838	1029.687066797783	10
0	7840	1030.081994275914	11
0	7842	1030.148852355853	12
0	7844	1030.375354481086	13
0	7845	1031.0207462269	12
0	7847	1031.775451782605	11
0	7850	1032.04039442827	12
0	7852	1032.225661019915	13
0	7854	1032.316616606216	14
0	7855	1032.382715548821	13
0	7857	1032.70451375537	12
0	7859	1032.942546161867	11
0	7862	1033.038424854831	12
0	7863	1033.156162168246	11
0	7865	1033.221869647371	10
0	7867	1033.849068042216	9
0	7870	1033.856883799059	10
0	7871	1033.919797750159	9
0	7874	1034.71678924093	10
0	7875	1035.24364628801	9
0	7878	1035.303787185856	10
0	7879	1035.389163046811	9
0	7882	1036.013117060377	10
0	7883	1036.52423955493	9
0	7885	1036.555688334165	8
0	7888	1036.769608905038	9
0	7890	1037.078446087249	10
0	7891	1037.11236618954	9
0	7893	1037.167895904454	8
0	7895	1037.255876022074	7
0	7897	1037.257795572601	6
0	7900	1037.327302038691	7
0	7902	1037.730758020357	8
0	7904	1037.878823616133	9
0	7906	1037.939283021083	10
0	7907	1038.662167486666	9
0	7909	1039.174256458598	8
0	7911	1039.217372604416	7
0	7913	1039.696458074313	6
0	7916	1039.904760434004	7
0	7918	1040.001754856771	8
0	7920	1040.120577695528	9
0	7921	1040.398184480889	8
0	7923	1041.109204389712	7
0	7926	1041.542015828404	8
0	7928	1041.577863088557	9
0	7929	1041.619884026991	8
0	7932	1041.754752845826	9
0	7934	1042.372370675669	10
0	7935	1042.425954179254	9
0	7938	1042.643325408163	10
0	7939	1042.95255744047	9
0	7941	1043.120115191925	8
0	7943	1043.531316332576	7
0	7945	1043.719694640748	6
0	7948	1043.937292864751	7
0	7949	1044.010263024324	6
0	7952	1044.159738862858	7
0	7953	1044.345292328243	6
0	7956	1044.639101138373	7
0	7957	1044.652833599296	6
0	7959	1044.711663216704	5
0	7961	1044.787736923853	4
0	7963	1045.233107498214	3
0	7966	1045.792448640015	4
0	7968	1045.890892472542	5
0	7970	1045.904913823615	6
0	7971	1046.065523377866	5
0	7973	1046.497445794862	4
0	7975	1046.523434879081	3
0	7977	1046.73750875834	2
0	7980	1046.815535235766	3
0	7982	1047.598919785714	4
0	7984	1047.679567065576	5
0	7985	1047.972655488659	4
0	7987	1048.040247022484	3
0	7989	1048.301900548903	2
0	7992	1048.318193989727	3
0	7993	1048.330967005002	2
0	7995	1048.395887763139	1
0	7997	1048.67456765802	0
0	8000	1048.834415346867	1
0	8001	1049.015888116178	0
0	8008	1049.992004928358	1
0	8010	1050.362287862934	2
0	8012	1050.590399104448	3
0	8014	1050.734587316827	4
0	8015	1050.755064622648	3
0	8017	1051.126655994367	2
0	8019	1051.150797006107	1
0	8021	1051.295130329152	0
0	8028	1052.467915970357	1
0	8030	1052.560886893953	2
0	8032	1052.650254738969	3
0	8034	1052.737115515026	4
0	8035	1052.777172884961	3
0	8038	1052.887838726148	4
0	8039	1052.993020529292	3
0	8042	1053.119823573059	4
0	8043	1053.215642380495	3
0	8045	1053.340491997729	2
0	8047	1053.539728887883	1
0	8050	1053.558597189208	2
0	8051	1053.596168573546	1
0	8053	1053.612168564483	0
0	8056	1053.714702826242	1
0	8058	1053.727480629321	2
0	8059	1053.87911681309	1
0	8061	1054.005851487803	0
0	8064	1054.106973599727	1
0	8066	1054.41678576727	2
0	8068	1054.980221615547	3
0	8069	1055.318261301548	2
0	8071	1055.403624365804	1
0	8074	1055.627979352753	2
0	8075	1055.661269433111	1
0	8078	1056.344316642319	2
0	8079	1056.598844054944	1
0	8081	1056.613186049032	0
0	8112	1060.427994827145	1
0	8113	1060.793646071829	0
0	8116	1061.289027970689	1
0	8117	1061.390553810985	0
0	8120	1061.527776945149	1
0	8121	1061.598259255166	0
0	8124	1061.951567791944	1
0	8125	1062.037884544124	0
0	8132	1064.00624524242	1
0	8134	1064.084835456869	2
0	8136	1064.358824208929	3
0	8137	1064.418177359212	2
0	8139	1064.677522975916	1
0	8142	1065.113871683563	2
0	8143	1065.331686855773	1
0	8145	1065.918250020808	0
0	8148	1065.957435217953	1
0	8149	1066.272091277495	0
0	8160	1068.522914366159	1
0	8161	1068.557034013632	0
0	8168	1069.016228218662	1
0	8170	1069.279923799255	2
0	8171	1069.660988655023	1
[...]
4	26128	3284.813043800335	6531
4	26130	3285.019589387147	6532
4	26132	3285.09327106174	6533
4	26136	3285.761367274636	6534
4	26140	3287.704366501716	6535
4	26144	3287.968070091482	6536
4	26150	3288.417058651256	6537
4	26152	3288.595406038666	6538
4	26156	3288.70957651981	6539
4	26168	3290.151387227841	6540
4	26172	3290.806562705995	6541
4	26176	3290.891384511848	6542
4	26180	3291.43461872347	6543
4	26184	3291.764464942495	6544
4	26190	3292.473756211047	6545
4	26192	3292.699557758763	6546
4	26194	3292.766564100084	6547
4	26196	3292.793713441004	6548
4	26198	3292.858917452265	6549
4	26200	3293.12164095048	6550
4	26204	3295.045875063399	6551
4	26210	3295.587990300437	6552
4	26212	3295.631071196447	6553
4	26216	3296.220639785296	6554
4	26220	3296.502145267451	6555
4	26224	3296.848883350136	6556
4	26228	3297.17038963801	6557
4	26236	3297.917253806437	6558
4	26238	3298.424759994996	6559
4	26242	3298.774300823101	6560
4	26244	3299.169771071864	6561
4	26254	3300.642354794009	6562
4	26260	3301.454425580887	6563
4	26266	3302.296846446409	6564
4	26270	3302.583369514549	6565
4	26272	3302.595489608831	6566
4	26274	3302.686826520053	6567
4	26278	3302.828080395597	6568
4	26280	3302.936379492126	6569
4	26290	3304.617567320415	6570
4	26294	3304.907878391791	6571
4	26298	3305.115209195616	6572
4	26306	3305.538630609319	6573
4	26308	3305.646558202757	6574
4	26310	3305.710613766382	6575
4	26314	3305.97317149282	6576
4	26318	3306.462529995377	6577
4	26320	3306.508761989978	6578
4	26324	3306.900360377531	6579
4	26326	3306.929698816103	6580
4	26328	3307.496105985619	6581
4	26336	3308.357968861939	6582
4	26338	3308.450707061815	6583
4	26344	3309.124050830529	6584
4	26354	3310.186732725568	6585
4	26362	3311.16227226249	6586
4	26364	3311.272584394665	6587
4	26366	3311.309783585078	6588
4	26370	3311.415460881524	6589
4	26374	3311.676839263709	6590
4	26378	3312.005204385924	6591
4	26384	3312.91292351678	6592
4	26390	3313.541302475672	6593
4	26392	3314.059336183054	6594
4	26394	3314.067198228154	6595
4	26400	3314.922050199869	6596
4	26402	3315.345877154768	6597
4	26406	3315.684825588352	6598
4	26412	3315.842921652481	6599
4	26416	3316.021217104051	6600
4	26418	3316.414374824504	6601
4	26422	3317.053750021917	6602
4	26424	3317.265690810765	6603
4	26426	3317.358400330238	6604
4	26428	3317.87357801772	6605
4	26430	3317.939867173705	6606
4	26432	3317.979789449263	6607
4	26434	3318.161043940369	6608
4	26436	3318.212952674921	6609
4	26440	3319.155387847464	6610
4	26444	3319.855468083312	6611
4	26456	3320.872037390794	6612
4	26460	3320.953102775203	6613
4	26462	3320.995275234693	6614
4	26464	3321.122927486116	6615
4	26470	3321.233814226461	6616
4	26480	3321.932801090903	6617
4	26482	3322.006190498265	6618
4	26486	3322.350053998708	6619
4	26494	3323.364108725651	6620
4	26504	3324.800365975545	6621
4	26508	3324.993182643565	6622
4	26510	3326.515800890836	6623
4	26512	3326.593117085775	6624
4	26514	3326.594041991334	6625
4	26516	3327.125671294406	6626
4	26520	3327.371339900492	6627
4	26522	3327.62446908028	6628
4	26524	3327.725993640292	6629
4	26528	3328.420269819773	6630
4	26530	3328.557393800683	6631
4	26532	3328.572301301253	6632
4	26534	3329.170799730302	6633
4	26536	3329.603032790002	6634
4	26548	3330.446115836339	6635
4	26556	3331.106543964645	6636
4	26558	3331.135519950561	6637
4	26562	3331.639879823107	6638
4	26578	3333.253546519189	6639
4	26582	3333.333107243323	6640
4	26584	3333.380188587984	6641
4	26586	3333.424158041285	6642
4	26590	3334.132567192726	6643
4	26592	3334.325994962445	6644
4	26594	3334.32994345261	6645
4	26598	3334.532901061488	6646
4	26600	3335.275183116358	6647
4	26602	3335.320225592054	6648
4	26608	3335.862202607368	6649
4	26612	3335.934921141715	6650
4	26614	3335.999149711407	6651
4	26618	3336.4762274455	6652
4	26620	3336.830299596638	6653
4	26632	3337.496663474684	6654
4	26636	3337.836565745739	6655
4	26642	3338.317764340349	6656
4	26648	3338.62462242551	6657
4	26650	3339.205746981838	6658
4	26652	3339.684945381621	6659
4	26656	3340.185916894135	6660
4	26662	3340.691207307678	6661
4	26670	3341.343924540357	6662
4	26672	3341.568024303396	6663
4	26674	3341.827904034268	6664
4	26676	3341.828807831447	6665
4	26678	3342.347013218339	6666
4	26680	3343.161718784685	6667
4	26682	3343.202273876404	6668
4	26684	3343.456363441065	6669
4	26686	3343.737587714353	6670
4	26688	3343.854556546547	6671
4	26696	3344.135106250092	6672
4	26698	3344.30840996195	6673
4	26702	3344.409566615506	6674
4	26704	3345.317918778591	6675
4	26710	3345.78666939173	6676
4	26712	3345.992625954788	6677
4	26722	3346.835067649019	6678
4	26724	3346.943650080009	6679
4	26726	3346.984258892841	6680
4	26728	3346.985449573895	6681
4	26730	3347.330122043416	6682
4	26734	3347.695274506857	6683
4	26738	3347.795830967064	6684
4	26740	3348.021719018515	6685
4	26748	3348.709049218431	6686
4	26754	3349.452935586849	6687
4	26756	3349.951004116744	6688
4	26760	3350.183362627924	6689
4	26766	3351.555061706142	6690
4	26768	3352.098125800524	6691
4	26772	3352.116233806677	6692
4	26776	3352.671931724918	6693
4	26784	3353.179034549537	6694
4	26796	3354.223534304352	6695
4	26800	3354.461380850177	6696
4	26804	3355.179159192436	6697
4	26806	3355.294501881559	6698
4	26810	3356.524566007763	6699
4	26820	3357.368499434502	6700
4	26822	3357.734340359958	6701
4	26826	3357.980958306157	6702
4	26828	3358.00018264757	6703
4	26836	3358.445476216623	6704
4	26838	3358.566049284851	6705
4	26840	3358.830676332024	6706
4	26844	3359.316480492059	6707
4	26846	3359.485363223397	6708
4	26848	3359.493584494372	6709
4	26854	3359.638923169607	6710
4	26856	3359.862569084313	6711
4	26860	3360.498546868993	6712
4	26866	3361.045129357907	6713
4	26868	3361.230948280387	6714
4	26884	3362.466132486662	6715
4	26886	3362.597917546383	6716
4	26888	3362.623255077248	6717
4	26890	3362.76214827889	6718
4	26894	3363.091056397887	6719
4	26896	3363.443039297319	6720
4	26898	3363.461130509624	6721
4	26900	3363.462898292498	6722
4	26902	3363.473393944365	6723
4	26904	3363.852367929793	6724
4	26908	3364.946607543211	6725
4	26910	3365.016391775203	6726
4	26912	3365.360654493191	6727
4	26914	3365.378225753231	6728
4	26916	3365.460363351036	6729
4	26922	3366.07762853821	6730
4	26924	3366.556272803202	6731
4	26930	3367.593416287867	6732
4	26932	3367.972238073909	6733
4	26936	3368.854020166326	6734
4	26940	3369.715181140361	6735
4	26944	3369.857575265102	6736
4	26948	3370.491991476221	6737
4	26958	3371.580687430217	6738
4	26962	3371.645421407358	6739
4	26968	3372.124316663545	6740
4	26970	3372.137206977374	6741
4	26972	3372.486897741314	6742
4	26976	3372.992753526315	6743
4	26980	3373.063425462392	6744
4	26984	3373.306498831872	6745
4	26986	3373.357808743428	6746
4	26996	3374.469973752339	6747
4	27002	3375.446648148186	6748
4	27006	3375.685671687138	6749
4	27008	3376.296539619273	6750
4	27010	3376.565169309725	6751
4	27014	3376.764221781218	6752
4	27018	3376.994359526576	6753
4	27022	3377.129735272015	6754
4	27026	3377.820695875993	6755
4	27030	3377.965134138751	6756
4	27032	3378.490268073309	6757
4	27034	3378.849233875264	6758
4	27040	3379.899357906335	6759
4	27050	3381.118895764852	6760
4	27052	3381.324941771081	6761
4	27060	3382.199398119929	6762
4	27064	3382.506014374136	6763
4	27066	3382.9716948235	6764
4	27068	3383.28099826673	6765
4	27070	3383.511352689626	6766
4	27072	3384.302612150004	6767
4	27074	3384.504818634226	6768
4	27080	3386.339667727547	6769
4	27086	3386.873920743669	6770
4	27088	3387.190460224842	6771
4	27090	3387.914948575549	6772
4	27094	3388.4390873719	6773
4	27096	3388.724241274598	6774
4	27102	3389.834355982131	6775
4	27104	3390.113438999674	6776
4	27112	3392.602081726926	6777
4	27116	3393.029870730191	6778
4	27120	3393.477585290015	6779
4	27124	3394.934723576368	6780
4	27126	3395.524378257614	6781
4	27128	3395.689710709526	6782
4	27132	3396.228117090301	6783
4	27136	3396.491305907163	6784
4	27142	3397.548308060488	6785
4	27144	3397.955418239292	6786
4	27148	3398.26648492585	6787
4	27152	3398.540610984569	6788
4	27156	3398.804255148946	6789
4	27162	3399.681664660992	6790
4	27168	3400.019464857828	6791
4	27172	3400.697093339963	6792
4	27176	3400.726551564152	6793
4	27178	3400.868534597701	6794
4	27180	3401.180594216134	6795
4	27184	3401.920742656107	6796
4	27192	3403.844092367928	6797
4	27204	3405.822434299585	6798
4	27206	3405.927128316323	6799
4	27212	3406.710266805127	6800
4	27214	3406.798926252079	6801
4	27216	3406.820356109985	6802
4	27220	3407.128521150223	6803
4	27222	3407.201063126024	6804
4	27224	3407.453697698431	6805
4	27230	3407.900455674978	6806
4	27234	3408.325328420798	6807
4	27236	3408.407627358967	6808
4	27238	3408.465089271373	6809
4	27240	3408.502356024598	6810
4	27244	3409.885147228467	6811
4	27248	3410.245790433119	6812
4	27254	3410.851214451649	6813
4	27258	3411.604784291826	6814
4	27260	3411.910157489053	6815
4	27264	3412.379539947713	6816
4	27270	3413.062781270798	6817
4	27274	3413.637017693632	6818
4	27276	3413.767926561079	6819
4	27280	3414.761303742279	6820
4	27286	3415.859574832493	6821
4	27288	3415.895587878576	6822
4	27294	3416.135846345765	6823
4	27296	3416.361308232909	6824
4	27300	3416.829206960172	6825
4	27308	3418.131315204527	6826
4	27316	3419.610519443758	6827
4	27318	3419.628056687183	6828
4	27324	3420.456588974602	6829
4	27326	3420.55824215336	6830
4	27328	3420.961910479102	6831
4	27332	3421.103226503763	6832
4	27334	3421.488049066821	6833
4	27340	3421.932908619177	6834
4	27350	3424.108327897894	6835
4	27356	3425.572730776433	6836
4	27360	3425.8029378819	6837
4	27372	3428.174155161835	6838
4	27376	3428.509142336956	6839
4	27378	3428.512142268158	6840
4	27380	3428.896328373922	6841
4	27382	3429.153434545903	6842
4	27386	3430.005003160353	6843
4	27392	3430.434842672257	6844
4	27396	3430.526101275853	6845
4	27398	3430.64420182941	6846
4	27402	3430.708182536619	6847
4	27404	3430.752584501544	6848
4	27406	3431.186720058289	6849
4	27408	3431.554319667389	6850
4	27410	3431.624686208335	6851
4	27412	3431.709406293458	6852
4	27416	3431.958253294645	6853
4	27418	3432.339636260972	6854
4	27420	3432.692124512176	6855
4	27424	3433.334355244007	6856
4	27428	3433.894821312608	6857
4	27438	3434.830253273197	6858
4	27444	3435.772451992617	6859
4	27446	3435.816413744177	6860
4	27450	3436.148112723622	6861
4	27454	3436.242566201674	6862
4	27456	3436.279137498716	6863
4	27458	3436.5852401593	6864
4	27462	3437.168118156885	6865
4	27466	3437.467002370445	6866
4	27468	3437.689402631442	6867
4	27474	3438.822313924651	6868
4	27478	3439.027610781558	6869
4	27486	3439.382047468562	6870
4	27502	3441.107274704002	6871
4	27504	3441.22695982643	6872
4	27510	3442.560324649977	6873
4	27512	3442.565542140778	6874
4	27514	3442.662606024267	6875
4	27516	3442.963909924034	6876
4	27520	3443.525950443291	6877
4	27522	3443.769817122465	6878
4	27530	3444.965653389545	6879
4	27532	3445.048580108659	6880
4	27536	3445.709048315399	6881
4	27540	3446.221069612092	6882
4	27546	3448.488908752771	6883
4	27548	3449.065149284145	6884
4	27550	3449.14424702891	6885
4	27554	3449.737964292476	6886
4	27556	3450.226439463585	6887
4	27562	3450.657756440302	6888
4	27566	3451.701845938878	6889
4	27568	3451.720730423043	6890
4	27570	3452.4453991841	6891
4	27576	3453.862071157574	6892
4	27582	3454.970886689822	6893
4	27586	3455.683700550979	6894
4	27588	3455.754657267837	6895
4	27592	3456.860247355826	6896
4	27594	3457.108404436253	6897
4	27596	3457.112213240856	6898
4	27600	3457.611879735271	6899
4	27602	3457.613518003753	6900
4	27604	3457.825526356089	6901
4	27618	3460.887153395974	6902
4	27620	3461.64382123272	6903
4	27628	3461.909309253796	6904
4	27634	3462.228219331458	6905
4	27636	3462.230612434819	6906
4	27638	3462.689459002991	6907
4	27640	3462.785545933911	6908
4	27646	3463.984474106807	6909
4	27648	3464.084070967324	6910
4	27654	3464.513809990161	6911
4	27656	3464.532887686816	6912
4	27658	3464.642201203609	6913
4	27660	3464.788408416436	6914
4	27670	3465.334339790398	6915
4	27674	3465.67686521996	6916
4	27678	3465.798811108953	6917
4	27682	3466.191560699227	6918
4	27684	3466.615306282653	6919
4	27686	3466.809447848554	6920
4	27688	3467.154018986918	6921
4	27690	3467.447282984171	6922
4	27692	3467.684415626001	6923
4	27696	3467.888970072855	6924
4	27700	3468.377921031198	6925
4	27704	3468.906316894844	6926
4	27710	3469.688249779224	6927
4	27712	3469.736974717187	6928
4	27716	3469.980848369517	6929
4	27720	3470.159030067494	6930
4	27728	3471.242282246717	6931
4	27730	3471.267437333111	6932
4	27734	3471.485956304445	6933
4	27736	3471.640640708192	6934
4	27742	3472.037393839392	6935
4	27750	3472.973891971005	6936
4	27752	3473.053768317891	6937
4	27762	3473.76311999115	6938
4	27764	3474.448647168485	6939
4	27768	3474.496054769776	6940
4	27774	3475.236045033023	6941
4	27778	3475.853846396306	6942
4	27780	3475.860660504814	6943
4	27784	3476.066307890483	6944
4	27786	3476.311306966378	6945
4	27790	3476.59577494913	6946
4	27796	3477.114228653378	6947
4	27798	3477.216783610494	6948
4	27800	3477.489726776957	6949
4	27804	3477.959098866543	6950
4	27806	3478.024839878304	6951
4	27808	3478.029951171547	6952
4	27816	3479.29143622495	6953
4	27818	3479.38985185827	6954
4	27820	3479.528908691216	6955
4	27826	3481.77347873589	6956
4	27828	3481.87514722615	6957
4	27840	3483.323992658507	6958
4	27842	3483.445135099475	6959
4	27846	3483.728235876433	6960
4	27848	3483.761924721753	6961
4	27852	3484.119507197377	6962
4	27854	3484.221218428071	6963
4	27856	3484.332300283982	6964
4	27860	3484.716969210779	6965
4	27864	3484.908319909619	6966
4	27872	3485.647675360315	6967
4	27876	3485.969049761645	6968
4	27880	3486.17422077132	6969
4	27882	3486.677725590904	6970
4	27884	3486.696772790132	6971
4	27892	3487.325873768314	6972
4	27894	3488.014124524622	6973
4	27896	3488.083910144214	6974
4	27902	3489.848154621704	6975
4	27904	3489.986505260079	6976
4	27910	3491.2162356286	6977
4	27912	3491.258413278337	6978
4	27916	3491.801881383624	6979
4	27922	3492.939271054895	6980
4	27924	3493.175952290975	6981
4	27932	3493.735961060724	6982
4	27934	3493.858291150957	6983
4	27936	3494.298133985123	6984
4	27940	3494.493203617679	6985
4	27946	3497.565174197292	6986
4	27950	3497.999648304041	6987
4	27952	3498.073098204387	6988
4	27956	3498.596999046096	6989
4	27960	3499.482976449959	6990
4	27964	3501.232384475855	6991
4	27972	3504.286179663249	6992
4	27974	3504.57968104703	6993
4	27976	3504.816121961129	6994
4	27980	3505.043592087818	6995
4	27984	3505.596270250645	6996
4	27988	3505.904895161945	6997
4	27992	3506.06295182196	6998
4	27996	3507.258640729034	6999
4	28004	3508.728769690911	7000
4	28006	3509.0170051371	7001
4	28008	3509.094691547318	7002
4	28012	3509.797458516853	7003
4	28016	3510.501318092499	7004
4	28022	3511.683739733651	7005
4	28024	3511.862689542077	7006
4	28030	3513.558825156158	7007
4	28038	3515.164035163409	7008
4	28042	3516.158620726233	7009
4	28044	3516.160914753204	7010
4	28046	3516.239764208087	7011
4	28050	3516.532123292014	7012
4	28058	3517.333922562851	7013
4	28060	3517.478248787498	7014
4	28062	3517.586070655715	7015
4	28064	3518.053164866889	7016
4	28070	3518.397217929187	7017
4	28076	3518.89200992141	7018
4	28080	3519.210531911711	7019
4	28082	3519.280847440098	7020
4	28086	3521.301688731022	7021
4	28090	3522.906130726153	7022
4	28092	3523.192564860387	7023
4	28098	3524.179127050507	7024
4	28104	3525.316912614219	7025
4	28106	3525.338024423438	7026
4	28108	3525.644108413144	7027
4	28120	3528.017426886755	7028
4	28122	3528.183870582359	7029
4	28124	3528.331341376196	7030
4	28126	3528.898029877581	7031
4	28128	3529.240960471075	7032
4	28132	3529.497206531294	7033
4	28140	3530.384145300113	7034
4	28142	3530.46426895487	7035
4	28146	3530.667250259818	7036
4	28148	3530.69376414901	7037
4	28154	3531.266770787702	7038
4	28156	3531.493077414506	7039
4	28160	3532.169454252634	7040
4	28168	3533.603636098253	7041
4	28170	3533.66728305847	7042
4	28172	3533.902521667089	7043
4	28178	3534.451345795155	7044
4	28184	3534.821628473419	7045
4	28186	3535.043207159546	7046
4	28188	3535.260409866216	7047
4	28194	3536.109555269894	7048
4	28200	3537.023004951513	7049
4	28202	3537.063509546347	7050
4	28206	3537.858998476517	7051
4	28212	3538.628233672283	7052
4	28216	3538.817613826942	7053
4	28218	3538.824688153203	7054
4	28220	3538.913721350338	7055
4	28226	3539.164108580167	7056
4	28228	3539.214891157781	7057
4	28234	3540.118218034768	7058
4	28236	3540.146295176332	7059
4	28240	3540.476756263355	7060
4	28244	3541.351036468991	7061
4	28250	3542.418845428959	7062
4	28254	3543.122769707172	7063
4	28256	3543.486713085564	7064
4	28260	3543.916648955247	7065
4	28264	3544.6119917053	7066
4	28268	3545.520819498341	7067
4	28272	3545.747259636732	7068
4	28276	3546.332548982557	7069
4	28282	3547.519039964859	7070
4	28284	3547.882414950282	7071
4	28290	3548.586441554573	7072
4	28292	3548.673629810774	7073
4	28296	3549.220953059594	7074
4	28302	3549.704869316033	7075
4	28304	3549.792925184829	7076
4	28308	3550.386510042342	7077
4	28312	3551.074862058259	7078
4	28316	3551.645407723849	7079
4	28320	3552.705636551066	7080
4	28324	3553.065055840057	7081
4	28330	3554.683272124395	7082
4	28334	3554.784682209198	7083
4	28338	3554.991522914627	7084
4	28340	3555.196286362667	7085
4	28346	3556.466758094827	7086
4	28350	3556.902357521995	7087
4	28354	3557.092658371076	7088
4	28358	3557.148747047153	7089
4	28362	3557.502942070839	7090
4	28364	3557.579753039056	7091
4	28368	3557.929598690703	7092
4	28376	3558.973797732678	7093
4	28380	3559.50270574823	7094
4	28386	3559.685342452497	7095
4	28388	3559.83861550547	7096
4	28392	3559.892408017746	7097
4	28394	3559.937604689505	7098
4	28396	3560.114599092937	7099
4	28402	3561.066509976855	7100
4	28406	3561.405033863105	7101
4	28412	3561.520383343351	7102
4	28414	3561.533575618815	7103
4	28416	3561.695225712694	7104
4	28424	3563.517412214618	7105
4	28432	3563.986793662279	7106
4	28434	3564.451934330788	7107
4	28442	3565.264168972066	7108
4	28446	3566.492893203925	7109
4	28448	3567.10955265282	7110
4	28452	3567.390241406393	7111
4	28454	3567.52960184513	7112
4	28462	3567.697853222534	7113
4	28468	3568.769773566118	7114
4	28470	3568.882598275671	7115
4	28474	3569.609404974392	7116
4	28478	3569.714607390838	7117
4	28488	3570.55253615429	7118
4	28490	3570.728944231843	7119
4	28492	3571.3259040317	7120
4	28494	3571.438790929701	7121
4	28496	3571.762698667657	7122
4	28500	3572.063833617931	7123
4	28504	3572.261304897028	7124
4	28514	3573.459161808562	7125
4	28516	3573.623963144961	7126
4	28522	3573.720453923135	7127
4	28524	3573.783508665472	7128
4	28532	3574.794444250261	7129
4	28534	3575.501799525452	7130
4	28536	3575.725579334613	7131
4	28540	3576.186674125485	7132
4	28550	3577.363031646386	7133
4	28552	3577.440541743473	7134
4	28554	3577.725217732147	7135
4	28564	3578.48758815312	7136
4	28566	3578.70902814778	7137
4	28570	3579.070691084991	7138
4	28572	3579.175058409004	7139
4	28576	3579.970964663124	7140
4	28578	3579.984231526928	7141
4	28582	3580.174543903178	7142
4	28584	3580.385674484657	7143
4	28586	3581.249971594108	7144
4	28590	3581.793833338531	7145
4	28592	3581.961767565648	7146
4	28594	3582.373405541347	7147
4	28600	3583.145548880557	7148
4	28602	3583.797392765824	7149
4	28608	3584.070005338062	7150
4	28610	3584.208294574124	7151
4	28618	3585.579275142747	7152
4	28620	3585.786724813437	7153
4	28622	3585.87209185582	7154
4	28624	3585.998505662436	7155
4	28626	3586.481097263805	7156
4	28628	3586.566204130814	7157
4	28632	3587.904908239417	7158
4	28642	3588.393823855274	7159
4	28644	3588.609082787626	7160
4	28646	3589.154962765846	7161
4	28652	3590.199966112204	7162
4	28654	3590.293984149473	7163
4	28660	3591.18194168788	7164
4	28668	3591.774447379789	7165
4	28670	3591.87078742621	7166
4	28672	3592.015245962929	7167
4	28674	3592.090893335175	7168
4	28676	3592.544765907896	7169
4	28680	3592.765134301025	7170
4	28684	3593.870189430296	7171
4	28688	3594.199254007297	7172
4	28692	3594.69821920375	7173
4	28696	3596.056105654461	7174
4	28702	3598.011224638927	7175
4	28704	3598.044224180693	7176
4	28712	3599.261457810074	7177

